@<TRIPOS>MOLECULE
00000001
   744   840     6
SMALL
NO_CHARGES
****
Generated from the CSD

@<TRIPOS>ATOM
     1 Co1     -0.5625  14.6814   4.8455   Co.oh     1 RES1   0.0000
     2 Co2     -4.5004  10.7487   4.8455   Co.oh     1 RES1   0.0000
     3 Co3     -0.5625   6.6427   4.8455   Co.oh     1 RES1   0.0000
     4 C1A     -2.9949  13.1831   5.2484   C.2       1 RES1   0.0000
     5 H1A     -3.4217  13.5945   4.5326   H         1 RES1   0.0000
     6 C2A     -1.5761  12.7755   6.8130   C.2       1 RES1   0.0000
     7 C6A     -2.5726  11.7992   6.8493   C.2       1 RES1   0.0000
     8 C7A     -2.5730  10.8117   7.8223   C.2       1 RES1   0.0000
     9 H7A     -3.2357  10.1606   7.8489   H         1 RES1   0.0000
    10 C5A     -1.5533  10.8320   8.7539   C.2       1 RES1   0.0000
    11 H5A     -1.5295  10.1859   9.4212   H         1 RES1   0.0000
    12 C4A     -0.5530  11.8136   8.7083   C.2       1 RES1   0.0000
    13 H4A      0.1162  11.8051   9.3547   H         1 RES1   0.0000
    14 C3A     -0.5304  12.7891   7.7381   C.2       1 RES1   0.0000
    15 H3A      0.1464  13.4264   7.7011   H         1 RES1   0.0000
    16 C1B      1.9237  16.2943   5.2259   C.2       1 RES1   0.0000
    17 H1B      2.3514  15.8657   4.5208   H         1 RES1   0.0000
    18 C2B      1.4568  17.7395   6.7493   C.2       1 RES1   0.0000
    19 C6B      0.4830  16.7401   6.7693   C.2       1 RES1   0.0000
    20 C7B     -0.5969  16.8092   7.6359   C.2       1 RES1   0.0000
    21 H7B     -1.2470  16.1452   7.6510   H         1 RES1   0.0000
    22 C5B     -0.6736  17.9036   8.4754   C.2       1 RES1   0.0000
    23 H5B     -1.3883  17.9801   9.0641   H         1 RES1   0.0000
    24 C4B      0.3113  18.9015   8.4526   C.2       1 RES1   0.0000
    25 H4B      0.2273  19.6302   9.0250   H         1 RES1   0.0000
    26 C3B      1.3972  18.8370   7.6102   C.2       1 RES1   0.0000
    27 H3B      2.0578  19.4923   7.6128   H         1 RES1   0.0000
    28 C1C     -6.9297  12.7276   4.1075   C.2       1 RES1   0.0000
    29 H1C     -7.3708  12.2952   4.8020   H         1 RES1   0.0000
    30 C2C     -5.4961  13.1658   2.5648   C.2       1 RES1   0.0000
    31 C3C     -4.4503  13.1640   1.6398   C.2       1 RES1   0.0000
    32 H3C     -3.7949  12.5035   1.6447   H         1 RES1   0.0000
    33 C4C     -4.4393  14.1870   0.7197   C.2       1 RES1   0.0000
    34 H4C     -3.7693  14.2057   0.0743   H         1 RES1   0.0000
    35 C5C     -5.4065  15.2022   0.7236   C.2       1 RES1   0.0000
    36 H5C     -5.3605  15.8799   0.0896   H         1 RES1   0.0000
    37 C7C     -6.4262  15.2096   1.6555   C.2       1 RES1   0.0000
    38 H7C     -7.0670  15.8829   1.6618   H         1 RES1   0.0000
    39 C6C     -6.4597  14.1751   2.5778   C.2       1 RES1   0.0000
    40 C1D     -1.8212   8.5842   4.9330   C.2       1 RES1   0.0000
    41 H1D     -1.4069   8.9897   5.6594   H         1 RES1   0.0000
    42 C2D     -2.2347   7.2124   3.3284   C.2       1 RES1   0.0000
    43 C3D     -2.2510   6.1671   2.4031   C.2       1 RES1   0.0000
    44 H3D     -1.5599   5.5458   2.3557   H         1 RES1   0.0000
    45 C4D     -3.3415   6.1011   1.5667   C.2       1 RES1   0.0000
    46 H4D     -3.3967   5.4049   0.9518   H         1 RES1   0.0000
    47 C5D     -4.3731   7.0498   1.6120   C.2       1 RES1   0.0000
    48 H5D     -5.0896   6.9744   1.0253   H         1 RES1   0.0000
    49 C7D     -4.3398   8.0941   2.5157   C.2       1 RES1   0.0000
    50 H7D     -5.0210   8.7257   2.5459   H         1 RES1   0.0000
    51 C6D     -3.2553   8.1630   3.3766   C.2       1 RES1   0.0000
    52 N1A     -1.8661  13.6535   5.7790   N.2       1 RES1   0.0000
    53 N3A     -3.4641  12.0707   5.8293   N.2       1 RES1   0.0000
    54 N1B      2.3714  17.4344   5.7520   N.2       1 RES1   0.0000
    55 N3B      0.8089  15.8164   5.7949   N.2       1 RES1   0.0000
    56 N3C     -7.3611  13.8826   3.5832   N.2       1 RES1   0.0000
    57 N1C     -5.8163  12.2473   3.5537   N.2       1 RES1   0.0000
    58 N3D     -2.9636   9.0411   4.4026   N.2       1 RES1   0.0000
    59 N1D     -1.3252   7.5008   4.3353   N.2       1 RES1   0.0000
    60 Co2      3.3754  10.7487   4.8455   Co.oh     1 RES1   0.0000
    61 C1A      1.8699  13.1831   4.4425   C.2       1 RES1   0.0000
    62 H1A      2.2967  13.5945   5.1583   H         1 RES1   0.0000
    63 C2A      0.4510  12.7755   2.8779   C.2       1 RES1   0.0000
    64 C6A      1.4476  11.7992   2.8416   C.2       1 RES1   0.0000
    65 C7A      1.4480  10.8117   1.8687   C.2       1 RES1   0.0000
    66 H7A      2.1107  10.1606   1.8420   H         1 RES1   0.0000
    67 C5A      0.4282  10.8320   0.9370   C.2       1 RES1   0.0000
    68 H5A      0.4045  10.1859   0.2697   H         1 RES1   0.0000
    69 C4A     -0.5721  11.8136   0.9826   C.2       1 RES1   0.0000
    70 H4A     -1.2413  11.8051   0.3362   H         1 RES1   0.0000
    71 C3A     -0.5946  12.7891   1.9528   C.2       1 RES1   0.0000
    72 H3A     -1.2715  13.4264   1.9898   H         1 RES1   0.0000
    73 C1B     -3.0487  16.2943   4.4650   C.2       1 RES1   0.0000
    74 H1B     -3.4765  15.8657   5.1701   H         1 RES1   0.0000
    75 C2B     -2.5818  17.7395   2.9416   C.2       1 RES1   0.0000
    76 C6B     -1.6080  16.7401   2.9216   C.2       1 RES1   0.0000
    77 C7B     -0.5282  16.8092   2.0550   C.2       1 RES1   0.0000
    78 H7B      0.1219  16.1452   2.0399   H         1 RES1   0.0000
    79 C5B     -0.4515  17.9036   1.2155   C.2       1 RES1   0.0000
    80 H5B      0.2633  17.9801   0.6268   H         1 RES1   0.0000
    81 C4B     -1.4363  18.9015   1.2383   C.2       1 RES1   0.0000
    82 H4B     -1.3524  19.6302   0.6659   H         1 RES1   0.0000
    83 C3B     -2.5223  18.8370   2.0808   C.2       1 RES1   0.0000
    84 H3B     -3.1829  19.4923   2.0781   H         1 RES1   0.0000
    85 C1C      5.8047  12.7276   5.5834   C.2       1 RES1   0.0000
    86 H1C      6.2457  12.2952   4.8889   H         1 RES1   0.0000
    87 C2C      4.3711  13.1658   7.1262   C.2       1 RES1   0.0000
    88 C3C      3.3252  13.1640   8.0511   C.2       1 RES1   0.0000
    89 H3C      2.6699  12.5035   8.0463   H         1 RES1   0.0000
    90 C4C      3.3142  14.1870   8.9712   C.2       1 RES1   0.0000
    91 H4C      2.6443  14.2057   9.6166   H         1 RES1   0.0000
    92 C5C      4.2815  15.2022   8.9673   C.2       1 RES1   0.0000
    93 H5C      4.2354  15.8799   9.6013   H         1 RES1   0.0000
    94 C7C      5.3012  15.2096   8.0354   C.2       1 RES1   0.0000
    95 H7C      5.9419  15.8829   8.0291   H         1 RES1   0.0000
    96 C6C      5.3347  14.1751   7.1132   C.2       1 RES1   0.0000
    97 C1D      0.6962   8.5842   4.7579   C.2       1 RES1   0.0000
    98 H1D      0.2819   8.9897   4.0315   H         1 RES1   0.0000
    99 C2D      1.1097   7.2124   6.3625   C.2       1 RES1   0.0000
   100 C3D      1.1259   6.1671   7.2878   C.2       1 RES1   0.0000
   101 H3D      0.4349   5.5458   7.3353   H         1 RES1   0.0000
   102 C4D      2.2165   6.1011   8.1243   C.2       1 RES1   0.0000
   103 H4D      2.2716   5.4049   8.7391   H         1 RES1   0.0000
   104 C5D      3.2480   7.0498   8.0789   C.2       1 RES1   0.0000
   105 H5D      3.9645   6.9744   8.6656   H         1 RES1   0.0000
   106 C7D      3.2147   8.0941   7.1752   C.2       1 RES1   0.0000
   107 H7D      3.8959   8.7257   7.1450   H         1 RES1   0.0000
   108 C6D      2.1303   8.1630   6.3143   C.2       1 RES1   0.0000
   109 N1A      0.7410  13.6535   3.9119   N.2       1 RES1   0.0000
   110 N3A      2.3391  12.0707   3.8616   N.2       1 RES1   0.0000
   111 N1B     -3.4964  17.4344   3.9389   N.2       1 RES1   0.0000
   112 N3B     -1.9339  15.8164   3.8960   N.2       1 RES1   0.0000
   113 N3C      6.2360  13.8826   6.1077   N.2       1 RES1   0.0000
   114 N1C      4.6913  12.2473   6.1373   N.2       1 RES1   0.0000
   115 N3D      1.8385   9.0411   5.2883   N.2       1 RES1   0.0000
   116 N1D      0.2001   7.5008   5.3556   N.2       1 RES1   0.0000
   117 Co2     -4.6776  18.7713   4.8455   Co.oh     1 RES1   0.0000
   118 Co2      3.5526  18.7713   4.8455   Co.oh     1 RES1   0.0000
   119 Co3      7.4905  14.6653   4.8455   Co.oh     1 RES1   0.0000
   120 Co3     -8.6155  14.6653   4.8455   Co.oh     1 RES1   0.0000
   121 N1B      4.5566   9.4118   3.9389   N.1       1 RES1   0.0000
   122 N1B     -5.6816   9.4118   5.7520   N.1       1 RES1   0.0000
   123 N3C     -1.8170   5.8600   6.1077   N.1       1 RES1   0.0000
   124 N3C      0.6919   5.8600   3.5832   N.1       1 RES1   0.0000
   125 Co1     15.5435  14.6814   4.8455   Co.oh     2 RES2   0.0000
   126 Co2     11.6056  10.7487   4.8455   Co.oh     2 RES2   0.0000
   127 Co3     15.5435   6.6427   4.8455   Co.oh     2 RES2   0.0000
   128 C1A     13.1111  13.1831   5.2484   C.2       2 RES2   0.0000
   129 H1A     12.6843  13.5945   4.5326   H         2 RES2   0.0000
   130 C2A     14.5299  12.7755   6.8130   C.2       2 RES2   0.0000
   131 C6A     13.5334  11.7992   6.8493   C.2       2 RES2   0.0000
   132 C7A     13.5330  10.8117   7.8223   C.2       2 RES2   0.0000
   133 H7A     12.8703  10.1606   7.8489   H         2 RES2   0.0000
   134 C5A     14.5527  10.8320   8.7539   C.2       2 RES2   0.0000
   135 H5A     14.5765  10.1859   9.4212   H         2 RES2   0.0000
   136 C4A     15.5530  11.8136   8.7083   C.2       2 RES2   0.0000
   137 H4A     16.2222  11.8051   9.3547   H         2 RES2   0.0000
   138 C3A     15.5756  12.7891   7.7381   C.2       2 RES2   0.0000
   139 H3A     16.2524  13.4264   7.7011   H         2 RES2   0.0000
   140 C1B     18.0297  16.2943   5.2259   C.2       2 RES2   0.0000
   141 H1B     18.4574  15.8657   4.5208   H         2 RES2   0.0000
   142 C2B     17.5628  17.7395   6.7493   C.2       2 RES2   0.0000
   143 C6B     16.5890  16.7401   6.7693   C.2       2 RES2   0.0000
   144 C7B     15.5091  16.8092   7.6359   C.2       2 RES2   0.0000
   145 H7B     14.8590  16.1452   7.6510   H         2 RES2   0.0000
   146 C5B     15.4324  17.9036   8.4754   C.2       2 RES2   0.0000
   147 H5B     14.7177  17.9801   9.0641   H         2 RES2   0.0000
   148 C4B     16.4173  18.9015   8.4526   C.2       2 RES2   0.0000
   149 H4B     16.3333  19.6302   9.0250   H         2 RES2   0.0000
   150 C3B     17.5032  18.8370   7.6102   C.2       2 RES2   0.0000
   151 H3B     18.1638  19.4923   7.6128   H         2 RES2   0.0000
   152 C1C      9.1763  12.7276   4.1075   C.2       2 RES2   0.0000
   153 H1C      8.7352  12.2952   4.8020   H         2 RES2   0.0000
   154 C2C     10.6099  13.1658   2.5648   C.2       2 RES2   0.0000
   155 C3C     11.6557  13.1640   1.6398   C.2       2 RES2   0.0000
   156 H3C     12.3111  12.5035   1.6447   H         2 RES2   0.0000
   157 C4C     11.6667  14.1870   0.7197   C.2       2 RES2   0.0000
   158 H4C     12.3367  14.2057   0.0743   H         2 RES2   0.0000
   159 C5C     10.6995  15.2022   0.7236   C.2       2 RES2   0.0000
   160 H5C     10.7455  15.8799   0.0896   H         2 RES2   0.0000
   161 C7C      9.6798  15.2096   1.6555   C.2       2 RES2   0.0000
   162 H7C      9.0390  15.8829   1.6618   H         2 RES2   0.0000
   163 C6C      9.6463  14.1751   2.5778   C.2       2 RES2   0.0000
   164 C1D     14.2848   8.5842   4.9330   C.2       2 RES2   0.0000
   165 H1D     14.6991   8.9897   5.6594   H         2 RES2   0.0000
   166 C2D     13.8713   7.2124   3.3284   C.2       2 RES2   0.0000
   167 C3D     13.8550   6.1671   2.4031   C.2       2 RES2   0.0000
   168 H3D     14.5461   5.5458   2.3557   H         2 RES2   0.0000
   169 C4D     12.7645   6.1011   1.5667   C.2       2 RES2   0.0000
   170 H4D     12.7093   5.4049   0.9518   H         2 RES2   0.0000
   171 C5D     11.7329   7.0498   1.6120   C.2       2 RES2   0.0000
   172 H5D     11.0164   6.9744   1.0253   H         2 RES2   0.0000
   173 C7D     11.7662   8.0941   2.5157   C.2       2 RES2   0.0000
   174 H7D     11.0850   8.7257   2.5459   H         2 RES2   0.0000
   175 C6D     12.8507   8.1630   3.3766   C.2       2 RES2   0.0000
   176 N1A     14.2399  13.6535   5.7790   N.2       2 RES2   0.0000
   177 N3A     12.6419  12.0707   5.8293   N.2       2 RES2   0.0000
   178 N1B     18.4774  17.4344   5.7520   N.2       2 RES2   0.0000
   179 N3B     16.9149  15.8164   5.7949   N.2       2 RES2   0.0000
   180 N3C      8.7449  13.8826   3.5832   N.2       2 RES2   0.0000
   181 N1C     10.2897  12.2473   3.5537   N.2       2 RES2   0.0000
   182 N3D     13.1424   9.0411   4.4026   N.2       2 RES2   0.0000
   183 N1D     14.7808   7.5008   4.3353   N.2       2 RES2   0.0000
   184 Co2     19.4814  10.7487   4.8455   Co.oh     2 RES2   0.0000
   185 C1A     17.9759  13.1831   4.4425   C.2       2 RES2   0.0000
   186 H1A     18.4027  13.5945   5.1583   H         2 RES2   0.0000
   187 C2A     16.5570  12.7755   2.8779   C.2       2 RES2   0.0000
   188 C6A     17.5536  11.7992   2.8416   C.2       2 RES2   0.0000
   189 C7A     17.5540  10.8117   1.8687   C.2       2 RES2   0.0000
   190 H7A     18.2167  10.1606   1.8420   H         2 RES2   0.0000
   191 C5A     16.5342  10.8320   0.9370   C.2       2 RES2   0.0000
   192 H5A     16.5105  10.1859   0.2697   H         2 RES2   0.0000
   193 C4A     15.5339  11.8136   0.9826   C.2       2 RES2   0.0000
   194 H4A     14.8647  11.8051   0.3362   H         2 RES2   0.0000
   195 C3A     15.5114  12.7891   1.9528   C.2       2 RES2   0.0000
   196 H3A     14.8345  13.4264   1.9898   H         2 RES2   0.0000
   197 C1B     13.0573  16.2943   4.4650   C.2       2 RES2   0.0000
   198 H1B     12.6295  15.8657   5.1701   H         2 RES2   0.0000
   199 C2B     13.5242  17.7395   2.9416   C.2       2 RES2   0.0000
   200 C6B     14.4980  16.7401   2.9216   C.2       2 RES2   0.0000
   201 C7B     15.5778  16.8092   2.0550   C.2       2 RES2   0.0000
   202 H7B     16.2279  16.1452   2.0399   H         2 RES2   0.0000
   203 C5B     15.6545  17.9036   1.2155   C.2       2 RES2   0.0000
   204 H5B     16.3693  17.9801   0.6268   H         2 RES2   0.0000
   205 C4B     14.6697  18.9015   1.2383   C.2       2 RES2   0.0000
   206 H4B     14.7536  19.6302   0.6659   H         2 RES2   0.0000
   207 C3B     13.5837  18.8370   2.0808   C.2       2 RES2   0.0000
   208 H3B     12.9231  19.4923   2.0781   H         2 RES2   0.0000
   209 C1C     21.9107  12.7276   5.5834   C.2       2 RES2   0.0000
   210 H1C     22.3517  12.2952   4.8889   H         2 RES2   0.0000
   211 C2C     20.4771  13.1658   7.1262   C.2       2 RES2   0.0000
   212 C3C     19.4312  13.1640   8.0511   C.2       2 RES2   0.0000
   213 H3C     18.7759  12.5035   8.0463   H         2 RES2   0.0000
   214 C4C     19.4202  14.1870   8.9712   C.2       2 RES2   0.0000
   215 H4C     18.7503  14.2057   9.6166   H         2 RES2   0.0000
   216 C5C     20.3875  15.2022   8.9673   C.2       2 RES2   0.0000
   217 H5C     20.3414  15.8799   9.6013   H         2 RES2   0.0000
   218 C7C     21.4072  15.2096   8.0354   C.2       2 RES2   0.0000
   219 H7C     22.0479  15.8829   8.0291   H         2 RES2   0.0000
   220 C6C     21.4407  14.1751   7.1132   C.2       2 RES2   0.0000
   221 C1D     16.8022   8.5842   4.7579   C.2       2 RES2   0.0000
   222 H1D     16.3879   8.9897   4.0315   H         2 RES2   0.0000
   223 C2D     17.2157   7.2124   6.3625   C.2       2 RES2   0.0000
   224 C3D     17.2319   6.1671   7.2878   C.2       2 RES2   0.0000
   225 H3D     16.5409   5.5458   7.3353   H         2 RES2   0.0000
   226 C4D     18.3225   6.1011   8.1243   C.2       2 RES2   0.0000
   227 H4D     18.3776   5.4049   8.7391   H         2 RES2   0.0000
   228 C5D     19.3540   7.0498   8.0789   C.2       2 RES2   0.0000
   229 H5D     20.0705   6.9744   8.6656   H         2 RES2   0.0000
   230 C7D     19.3207   8.0941   7.1752   C.2       2 RES2   0.0000
   231 H7D     20.0019   8.7257   7.1450   H         2 RES2   0.0000
   232 C6D     18.2363   8.1630   6.3143   C.2       2 RES2   0.0000
   233 N1A     16.8470  13.6535   3.9119   N.2       2 RES2   0.0000
   234 N3A     18.4451  12.0707   3.8616   N.2       2 RES2   0.0000
   235 N1B     12.6096  17.4344   3.9389   N.2       2 RES2   0.0000
   236 N3B     14.1721  15.8164   3.8960   N.2       2 RES2   0.0000
   237 N3C     22.3420  13.8826   6.1077   N.2       2 RES2   0.0000
   238 N1C     20.7973  12.2473   6.1373   N.2       2 RES2   0.0000
   239 N3D     17.9445   9.0411   5.2883   N.2       2 RES2   0.0000
   240 N1D     16.3061   7.5008   5.3556   N.2       2 RES2   0.0000
   241 Co2     11.4284  18.7713   4.8455   Co.oh     2 RES2   0.0000
   242 Co2     19.6586  18.7713   4.8455   Co.oh     2 RES2   0.0000
   243 Co3     23.5965  14.6653   4.8455   Co.oh     2 RES2   0.0000
   244 Co3      7.4905  14.6653   4.8455   Co.oh     2 RES2   0.0000
   245 N1B     20.6626   9.4118   3.9389   N.1       2 RES2   0.0000
   246 N1B     10.4244   9.4118   5.7520   N.1       2 RES2   0.0000
   247 N3C     14.2890   5.8600   6.1077   N.1       2 RES2   0.0000
   248 N3C     16.7979   5.8600   3.5832   N.1       2 RES2   0.0000
   249 Co1     -1.6876   1.3638  14.5364   Co.oh     3 RES3   0.0000
   250 Co2     -5.6255   5.2965  14.5364   Co.oh     3 RES3   0.0000
   251 Co3     -1.6876   9.4025  14.5364   Co.oh     3 RES3   0.0000
   252 C1A     -4.1200   2.8621  14.9393   C.2       3 RES3   0.0000
   253 H1A     -4.5468   2.4507  14.2235   H         3 RES3   0.0000
   254 C2A     -2.7011   3.2697  16.5040   C.2       3 RES3   0.0000
   255 C6A     -3.6977   4.2460  16.5402   C.2       3 RES3   0.0000
   256 C7A     -3.6981   5.2335  17.5132   C.2       3 RES3   0.0000
   257 H7A     -4.3608   5.8846  17.5398   H         3 RES3   0.0000
   258 C5A     -2.6783   5.2132  18.4449   C.2       3 RES3   0.0000
   259 H5A     -2.6546   5.8593  19.1121   H         3 RES3   0.0000
   260 C4A     -1.6780   4.2316  18.3992   C.2       3 RES3   0.0000
   261 H4A     -1.0088   4.2401  19.0456   H         3 RES3   0.0000
   262 C3A     -1.6555   3.2561  17.4290   C.2       3 RES3   0.0000
   263 H3A     -0.9786   2.6188  17.3920   H         3 RES3   0.0000
   264 C1B      0.7986  -0.2491  14.9168   C.2       3 RES3   0.0000
   265 H1B      1.2264   0.1795  14.2117   H         3 RES3   0.0000
   266 C2B      0.3317  -1.6943  16.4402   C.2       3 RES3   0.0000
   267 C6B     -0.6421  -0.6949  16.4602   C.2       3 RES3   0.0000
   268 C7B     -1.7219  -0.7640  17.3269   C.2       3 RES3   0.0000
   269 H7B     -2.3720  -0.1000  17.3419   H         3 RES3   0.0000
   270 C5B     -1.7986  -1.8584  18.1663   C.2       3 RES3   0.0000
   271 H5B     -2.5134  -1.9349  18.7550   H         3 RES3   0.0000
   272 C4B     -0.8138  -2.8563  18.1435   C.2       3 RES3   0.0000
   273 H4B     -0.8977  -3.5850  18.7159   H         3 RES3   0.0000
   274 C3B      0.2722  -2.7918  17.3011   C.2       3 RES3   0.0000
   275 H3B      0.9328  -3.4471  17.3037   H         3 RES3   0.0000
   276 C1C     -8.0548   3.3176  13.7984   C.2       3 RES3   0.0000
   277 H1C     -8.4958   3.7500  14.4929   H         3 RES3   0.0000
   278 C2C     -6.6212   2.8794  12.2557   C.2       3 RES3   0.0000
   279 C3C     -5.5753   2.8812  11.3307   C.2       3 RES3   0.0000
   280 H3C     -4.9200   3.5417  11.3356   H         3 RES3   0.0000
   281 C4C     -5.5643   1.8582  10.4106   C.2       3 RES3   0.0000
   282 H4C     -4.8944   1.8395   9.7652   H         3 RES3   0.0000
   283 C5C     -6.5316   0.8430  10.4145   C.2       3 RES3   0.0000
   284 H5C     -6.4855   0.1653   9.7805   H         3 RES3   0.0000
   285 C7C     -7.5512   0.8356  11.3464   C.2       3 RES3   0.0000
   286 H7C     -8.1920   0.1623  11.3527   H         3 RES3   0.0000
   287 C6C     -7.5848   1.8701  12.2687   C.2       3 RES3   0.0000
   288 C1D     -2.9463   7.4610  14.6239   C.2       3 RES3   0.0000
   289 H1D     -2.5320   7.0555  15.3503   H         3 RES3   0.0000
   290 C2D     -3.3598   8.8328  13.0193   C.2       3 RES3   0.0000
   291 C3D     -3.3760   9.8781  12.0940   C.2       3 RES3   0.0000
   292 H3D     -2.6850  10.4994  12.0466   H         3 RES3   0.0000
   293 C4D     -4.4666   9.9441  11.2576   C.2       3 RES3   0.0000
   294 H4D     -4.5217  10.6403  10.6427   H         3 RES3   0.0000
   295 C5D     -5.4981   8.9954  11.3029   C.2       3 RES3   0.0000
   296 H5D     -6.2146   9.0708  10.7162   H         3 RES3   0.0000
   297 C7D     -5.4648   7.9511  12.2066   C.2       3 RES3   0.0000
   298 H7D     -6.1460   7.3195  12.2368   H         3 RES3   0.0000
   299 C6D     -4.3804   7.8822  13.0675   C.2       3 RES3   0.0000
   300 N1A     -2.9911   2.3917  15.4699   N.2       3 RES3   0.0000
   301 N3A     -4.5892   3.9745  15.5202   N.2       3 RES3   0.0000
   302 N1B      1.2463  -1.3892  15.4429   N.2       3 RES3   0.0000
   303 N3B     -0.3162   0.2288  15.4858   N.2       3 RES3   0.0000
   304 N3C     -8.4861   2.1626  13.2741   N.2       3 RES3   0.0000
   305 N1C     -6.9414   3.7979  13.2446   N.2       3 RES3   0.0000
   306 N3D     -4.0886   7.0041  14.0935   N.2       3 RES3   0.0000
   307 N1D     -2.4502   8.5444  14.0262   N.2       3 RES3   0.0000
   308 Co2      2.2503   5.2965  14.5364   Co.oh     3 RES3   0.0000
   309 C1A      0.7448   2.8621  14.1334   C.2       3 RES3   0.0000
   310 H1A      1.1716   2.4507  14.8492   H         3 RES3   0.0000
   311 C2A     -0.6740   3.2697  12.5688   C.2       3 RES3   0.0000
   312 C6A      0.3225   4.2460  12.5325   C.2       3 RES3   0.0000
   313 C7A      0.3229   5.2335  11.5596   C.2       3 RES3   0.0000
   314 H7A      0.9856   5.8846  11.5329   H         3 RES3   0.0000
   315 C5A     -0.6968   5.2132  10.6279   C.2       3 RES3   0.0000
   316 H5A     -0.7206   5.8593   9.9607   H         3 RES3   0.0000
   317 C4A     -1.6971   4.2316  10.6735   C.2       3 RES3   0.0000
   318 H4A     -2.3663   4.2401  10.0271   H         3 RES3   0.0000
   319 C3A     -1.7196   3.2561  11.6437   C.2       3 RES3   0.0000
   320 H3A     -2.3965   2.6188  11.6808   H         3 RES3   0.0000
   321 C1B     -4.1738  -0.2491  14.1559   C.2       3 RES3   0.0000
   322 H1B     -4.6015   0.1795  14.8610   H         3 RES3   0.0000
   323 C2B     -3.7069  -1.6943  12.6325   C.2       3 RES3   0.0000
   324 C6B     -2.7330  -0.6949  12.6125   C.2       3 RES3   0.0000
   325 C7B     -1.6532  -0.7640  11.7459   C.2       3 RES3   0.0000
   326 H7B     -1.0031  -0.1000  11.7308   H         3 RES3   0.0000
   327 C5B     -1.5765  -1.8584  10.9064   C.2       3 RES3   0.0000
   328 H5B     -0.8617  -1.9349  10.3177   H         3 RES3   0.0000
   329 C4B     -2.5613  -2.8563  10.9292   C.2       3 RES3   0.0000
   330 H4B     -2.4774  -3.5850  10.3568   H         3 RES3   0.0000
   331 C3B     -3.6473  -2.7918  11.7717   C.2       3 RES3   0.0000
   332 H3B     -4.3079  -3.4471  11.7691   H         3 RES3   0.0000
   333 C1C      4.6796   3.3176  15.2743   C.2       3 RES3   0.0000
   334 H1C      5.1207   3.7500  14.5799   H         3 RES3   0.0000
   335 C2C      3.2460   2.8794  16.8171   C.2       3 RES3   0.0000
   336 C3C      2.2002   2.8812  17.7420   C.2       3 RES3   0.0000
   337 H3C      1.5448   3.5417  17.7372   H         3 RES3   0.0000
   338 C4C      2.1892   1.8582  18.6621   C.2       3 RES3   0.0000
   339 H4C      1.5192   1.8395  19.3075   H         3 RES3   0.0000
   340 C5C      3.1564   0.8430  18.6582   C.2       3 RES3   0.0000
   341 H5C      3.1104   0.1653  19.2922   H         3 RES3   0.0000
   342 C7C      4.1761   0.8356  17.7263   C.2       3 RES3   0.0000
   343 H7C      4.8169   0.1623  17.7201   H         3 RES3   0.0000
   344 C6C      4.2096   1.8701  16.8041   C.2       3 RES3   0.0000
   345 C1D     -0.4289   7.4610  14.4488   C.2       3 RES3   0.0000
   346 H1D     -0.8432   7.0555  13.7224   H         3 RES3   0.0000
   347 C2D     -0.0154   8.8328  16.0534   C.2       3 RES3   0.0000
   348 C3D      0.0009   9.8781  16.9787   C.2       3 RES3   0.0000
   349 H3D     -0.6902  10.4994  17.0262   H         3 RES3   0.0000
   350 C4D      1.0914   9.9441  17.8152   C.2       3 RES3   0.0000
   351 H4D      1.1466  10.6403  18.4300   H         3 RES3   0.0000
   352 C5D      2.1230   8.9954  17.7698   C.2       3 RES3   0.0000
   353 H5D      2.8395   9.0708  18.3565   H         3 RES3   0.0000
   354 C7D      2.0897   7.9511  16.8662   C.2       3 RES3   0.0000
   355 H7D      2.7709   7.3195  16.8359   H         3 RES3   0.0000
   356 C6D      1.0052   7.8822  16.0053   C.2       3 RES3   0.0000
   357 N1A     -0.3840   2.3917  13.6029   N.2       3 RES3   0.0000
   358 N3A      1.2140   3.9745  13.5525   N.2       3 RES3   0.0000
   359 N1B     -4.6215  -1.3892  13.6299   N.2       3 RES3   0.0000
   360 N3B     -3.0590   0.2288  13.5869   N.2       3 RES3   0.0000
   361 N3C      5.1110   2.1626  15.7986   N.2       3 RES3   0.0000
   362 N1C      3.5662   3.7979  15.8282   N.2       3 RES3   0.0000
   363 N3D      0.7135   7.0041  14.9792   N.2       3 RES3   0.0000
   364 N1D     -0.9249   8.5444  15.0465   N.2       3 RES3   0.0000
   365 Co2     -5.8027  -2.7261  14.5364   Co.oh     3 RES3   0.0000
   366 Co2      2.4275  -2.7261  14.5364   Co.oh     3 RES3   0.0000
   367 Co3      6.3654   1.3799  14.5364   Co.oh     3 RES3   0.0000
   368 Co3     -9.7406   1.3799  14.5364   Co.oh     3 RES3   0.0000
   369 N1B      3.4315   6.6334  13.6299   N.1       3 RES3   0.0000
   370 N1B     -6.8067   6.6334  15.4429   N.1       3 RES3   0.0000
   371 N3C     -2.9420  10.1852  15.7986   N.1       3 RES3   0.0000
   372 N3C     -0.4331  10.1852  13.2741   N.1       3 RES3   0.0000
   373 Co1     14.4184   1.3638  14.5364   Co.oh     4 RES4   0.0000
   374 Co2     10.4805   5.2965  14.5364   Co.oh     4 RES4   0.0000
   375 Co3     14.4184   9.4025  14.5364   Co.oh     4 RES4   0.0000
   376 C1A     11.9860   2.8621  14.9393   C.2       4 RES4   0.0000
   377 H1A     11.5592   2.4507  14.2235   H         4 RES4   0.0000
   378 C2A     13.4049   3.2697  16.5040   C.2       4 RES4   0.0000
   379 C6A     12.4083   4.2460  16.5402   C.2       4 RES4   0.0000
   380 C7A     12.4079   5.2335  17.5132   C.2       4 RES4   0.0000
   381 H7A     11.7452   5.8846  17.5398   H         4 RES4   0.0000
   382 C5A     13.4277   5.2132  18.4449   C.2       4 RES4   0.0000
   383 H5A     13.4514   5.8593  19.1121   H         4 RES4   0.0000
   384 C4A     14.4280   4.2316  18.3992   C.2       4 RES4   0.0000
   385 H4A     15.0972   4.2401  19.0456   H         4 RES4   0.0000
   386 C3A     14.4505   3.2561  17.4290   C.2       4 RES4   0.0000
   387 H3A     15.1274   2.6188  17.3920   H         4 RES4   0.0000
   388 C1B     16.9046  -0.2491  14.9168   C.2       4 RES4   0.0000
   389 H1B     17.3324   0.1795  14.2117   H         4 RES4   0.0000
   390 C2B     16.4377  -1.6943  16.4402   C.2       4 RES4   0.0000
   391 C6B     15.4639  -0.6949  16.4602   C.2       4 RES4   0.0000
   392 C7B     14.3841  -0.7640  17.3269   C.2       4 RES4   0.0000
   393 H7B     13.7340  -0.1000  17.3419   H         4 RES4   0.0000
   394 C5B     14.3074  -1.8584  18.1663   C.2       4 RES4   0.0000
   395 H5B     13.5926  -1.9349  18.7550   H         4 RES4   0.0000
   396 C4B     15.2922  -2.8563  18.1435   C.2       4 RES4   0.0000
   397 H4B     15.2083  -3.5850  18.7159   H         4 RES4   0.0000
   398 C3B     16.3782  -2.7918  17.3011   C.2       4 RES4   0.0000
   399 H3B     17.0388  -3.4471  17.3037   H         4 RES4   0.0000
   400 C1C      8.0512   3.3176  13.7984   C.2       4 RES4   0.0000
   401 H1C      7.6102   3.7500  14.4929   H         4 RES4   0.0000
   402 C2C      9.4848   2.8794  12.2557   C.2       4 RES4   0.0000
   403 C3C     10.5307   2.8812  11.3307   C.2       4 RES4   0.0000
   404 H3C     11.1860   3.5417  11.3356   H         4 RES4   0.0000
   405 C4C     10.5417   1.8582  10.4106   C.2       4 RES4   0.0000
   406 H4C     11.2116   1.8395   9.7652   H         4 RES4   0.0000
   407 C5C      9.5744   0.8430  10.4145   C.2       4 RES4   0.0000
   408 H5C      9.6205   0.1653   9.7805   H         4 RES4   0.0000
   409 C7C      8.5548   0.8356  11.3464   C.2       4 RES4   0.0000
   410 H7C      7.9140   0.1623  11.3527   H         4 RES4   0.0000
   411 C6C      8.5212   1.8701  12.2687   C.2       4 RES4   0.0000
   412 C1D     13.1597   7.4610  14.6239   C.2       4 RES4   0.0000
   413 H1D     13.5740   7.0555  15.3503   H         4 RES4   0.0000
   414 C2D     12.7462   8.8328  13.0193   C.2       4 RES4   0.0000
   415 C3D     12.7300   9.8781  12.0940   C.2       4 RES4   0.0000
   416 H3D     13.4210  10.4994  12.0466   H         4 RES4   0.0000
   417 C4D     11.6394   9.9441  11.2576   C.2       4 RES4   0.0000
   418 H4D     11.5843  10.6403  10.6427   H         4 RES4   0.0000
   419 C5D     10.6079   8.9954  11.3029   C.2       4 RES4   0.0000
   420 H5D      9.8914   9.0708  10.7162   H         4 RES4   0.0000
   421 C7D     10.6412   7.9511  12.2066   C.2       4 RES4   0.0000
   422 H7D      9.9600   7.3195  12.2368   H         4 RES4   0.0000
   423 C6D     11.7256   7.8822  13.0675   C.2       4 RES4   0.0000
   424 N1A     13.1149   2.3917  15.4699   N.2       4 RES4   0.0000
   425 N3A     11.5168   3.9745  15.5202   N.2       4 RES4   0.0000
   426 N1B     17.3523  -1.3892  15.4429   N.2       4 RES4   0.0000
   427 N3B     15.7898   0.2288  15.4858   N.2       4 RES4   0.0000
   428 N3C      7.6199   2.1626  13.2741   N.2       4 RES4   0.0000
   429 N1C      9.1646   3.7979  13.2446   N.2       4 RES4   0.0000
   430 N3D     12.0174   7.0041  14.0935   N.2       4 RES4   0.0000
   431 N1D     13.6558   8.5444  14.0262   N.2       4 RES4   0.0000
   432 Co2     18.3563   5.2965  14.5364   Co.oh     4 RES4   0.0000
   433 C1A     16.8508   2.8621  14.1334   C.2       4 RES4   0.0000
   434 H1A     17.2776   2.4507  14.8492   H         4 RES4   0.0000
   435 C2A     15.4320   3.2697  12.5688   C.2       4 RES4   0.0000
   436 C6A     16.4285   4.2460  12.5325   C.2       4 RES4   0.0000
   437 C7A     16.4289   5.2335  11.5596   C.2       4 RES4   0.0000
   438 H7A     17.0916   5.8846  11.5329   H         4 RES4   0.0000
   439 C5A     15.4092   5.2132  10.6279   C.2       4 RES4   0.0000
   440 H5A     15.3854   5.8593   9.9607   H         4 RES4   0.0000
   441 C4A     14.4089   4.2316  10.6735   C.2       4 RES4   0.0000
   442 H4A     13.7397   4.2401  10.0271   H         4 RES4   0.0000
   443 C3A     14.3864   3.2561  11.6437   C.2       4 RES4   0.0000
   444 H3A     13.7095   2.6188  11.6808   H         4 RES4   0.0000
   445 C1B     11.9322  -0.2491  14.1559   C.2       4 RES4   0.0000
   446 H1B     11.5045   0.1795  14.8610   H         4 RES4   0.0000
   447 C2B     12.3991  -1.6943  12.6325   C.2       4 RES4   0.0000
   448 C6B     13.3730  -0.6949  12.6125   C.2       4 RES4   0.0000
   449 C7B     14.4528  -0.7640  11.7459   C.2       4 RES4   0.0000
   450 H7B     15.1029  -0.1000  11.7308   H         4 RES4   0.0000
   451 C5B     14.5295  -1.8584  10.9064   C.2       4 RES4   0.0000
   452 H5B     15.2443  -1.9349  10.3177   H         4 RES4   0.0000
   453 C4B     13.5447  -2.8563  10.9292   C.2       4 RES4   0.0000
   454 H4B     13.6286  -3.5850  10.3568   H         4 RES4   0.0000
   455 C3B     12.4587  -2.7918  11.7717   C.2       4 RES4   0.0000
   456 H3B     11.7981  -3.4471  11.7691   H         4 RES4   0.0000
   457 C1C     20.7856   3.3176  15.2743   C.2       4 RES4   0.0000
   458 H1C     21.2267   3.7500  14.5799   H         4 RES4   0.0000
   459 C2C     19.3520   2.8794  16.8171   C.2       4 RES4   0.0000
   460 C3C     18.3062   2.8812  17.7420   C.2       4 RES4   0.0000
   461 H3C     17.6508   3.5417  17.7372   H         4 RES4   0.0000
   462 C4C     18.2952   1.8582  18.6621   C.2       4 RES4   0.0000
   463 H4C     17.6252   1.8395  19.3075   H         4 RES4   0.0000
   464 C5C     19.2624   0.8430  18.6582   C.2       4 RES4   0.0000
   465 H5C     19.2164   0.1653  19.2922   H         4 RES4   0.0000
   466 C7C     20.2821   0.8356  17.7263   C.2       4 RES4   0.0000
   467 H7C     20.9229   0.1623  17.7201   H         4 RES4   0.0000
   468 C6C     20.3156   1.8701  16.8041   C.2       4 RES4   0.0000
   469 C1D     15.6771   7.4610  14.4488   C.2       4 RES4   0.0000
   470 H1D     15.2628   7.0555  13.7224   H         4 RES4   0.0000
   471 C2D     16.0906   8.8328  16.0534   C.2       4 RES4   0.0000
   472 C3D     16.1069   9.8781  16.9787   C.2       4 RES4   0.0000
   473 H3D     15.4158  10.4994  17.0262   H         4 RES4   0.0000
   474 C4D     17.1974   9.9441  17.8152   C.2       4 RES4   0.0000
   475 H4D     17.2526  10.6403  18.4300   H         4 RES4   0.0000
   476 C5D     18.2290   8.9954  17.7698   C.2       4 RES4   0.0000
   477 H5D     18.9455   9.0708  18.3565   H         4 RES4   0.0000
   478 C7D     18.1957   7.9511  16.8662   C.2       4 RES4   0.0000
   479 H7D     18.8769   7.3195  16.8359   H         4 RES4   0.0000
   480 C6D     17.1112   7.8822  16.0053   C.2       4 RES4   0.0000
   481 N1A     15.7220   2.3917  13.6029   N.2       4 RES4   0.0000
   482 N3A     17.3200   3.9745  13.5525   N.2       4 RES4   0.0000
   483 N1B     11.4845  -1.3892  13.6299   N.2       4 RES4   0.0000
   484 N3B     13.0470   0.2288  13.5869   N.2       4 RES4   0.0000
   485 N3C     21.2170   2.1626  15.7986   N.2       4 RES4   0.0000
   486 N1C     19.6722   3.7979  15.8282   N.2       4 RES4   0.0000
   487 N3D     16.8195   7.0041  14.9792   N.2       4 RES4   0.0000
   488 N1D     15.1811   8.5444  15.0465   N.2       4 RES4   0.0000
   489 Co2     10.3033  -2.7261  14.5364   Co.oh     4 RES4   0.0000
   490 Co2     18.5335  -2.7261  14.5364   Co.oh     4 RES4   0.0000
   491 Co3     22.4714   1.3799  14.5364   Co.oh     4 RES4   0.0000
   492 Co3      6.3654   1.3799  14.5364   Co.oh     4 RES4   0.0000
   493 N1B     19.5375   6.6334  13.6299   N.1       4 RES4   0.0000
   494 N1B      9.2993   6.6334  15.4429   N.1       4 RES4   0.0000
   495 N3C     13.1640  10.1852  15.7986   N.1       4 RES4   0.0000
   496 N3C     15.6729  10.1852  13.2741   N.1       4 RES4   0.0000
   497 Co1      7.4905   6.6588   4.8455   Co.oh     5 RES5   0.0000
   498 Co2      3.5526   2.7261   4.8455   Co.oh     5 RES5   0.0000
   499 Co3      7.4905  -1.3799   4.8455   Co.oh     5 RES5   0.0000
   500 C1A      5.0581   5.1605   5.2484   C.2       5 RES5   0.0000
   501 H1A      4.6313   5.5719   4.5326   H         5 RES5   0.0000
   502 C2A      6.4769   4.7529   6.8130   C.2       5 RES5   0.0000
   503 C6A      5.4804   3.7766   6.8493   C.2       5 RES5   0.0000
   504 C7A      5.4800   2.7891   7.8223   C.2       5 RES5   0.0000
   505 H7A      4.8173   2.1380   7.8489   H         5 RES5   0.0000
   506 C5A      6.4997   2.8094   8.7539   C.2       5 RES5   0.0000
   507 H5A      6.5235   2.1633   9.4212   H         5 RES5   0.0000
   508 C4A      7.5000   3.7910   8.7083   C.2       5 RES5   0.0000
   509 H4A      8.1692   3.7825   9.3547   H         5 RES5   0.0000
   510 C3A      7.5226   4.7665   7.7381   C.2       5 RES5   0.0000
   511 H3A      8.1994   5.4038   7.7011   H         5 RES5   0.0000
   512 C1B      9.9767   8.2717   5.2259   C.2       5 RES5   0.0000
   513 H1B     10.4044   7.8431   4.5208   H         5 RES5   0.0000
   514 C2B      9.5098   9.7169   6.7493   C.2       5 RES5   0.0000
   515 C6B      8.5360   8.7175   6.7693   C.2       5 RES5   0.0000
   516 C7B      7.4561   8.7866   7.6359   C.2       5 RES5   0.0000
   517 H7B      6.8060   8.1226   7.6510   H         5 RES5   0.0000
   518 C5B      7.3794   9.8810   8.4754   C.2       5 RES5   0.0000
   519 H5B      6.6647   9.9575   9.0641   H         5 RES5   0.0000
   520 C4B      8.3643  10.8789   8.4526   C.2       5 RES5   0.0000
   521 H4B      8.2803  11.6076   9.0250   H         5 RES5   0.0000
   522 C3B      9.4502  10.8144   7.6102   C.2       5 RES5   0.0000
   523 H3B     10.1108  11.4697   7.6128   H         5 RES5   0.0000
   524 C1C      1.1233   4.7050   4.1075   C.2       5 RES5   0.0000
   525 H1C      0.6822   4.2726   4.8020   H         5 RES5   0.0000
   526 C2C      2.5569   5.1432   2.5648   C.2       5 RES5   0.0000
   527 C3C      3.6027   5.1414   1.6398   C.2       5 RES5   0.0000
   528 H3C      4.2581   4.4809   1.6447   H         5 RES5   0.0000
   529 C4C      3.6137   6.1644   0.7197   C.2       5 RES5   0.0000
   530 H4C      4.2837   6.1831   0.0743   H         5 RES5   0.0000
   531 C5C      2.6465   7.1796   0.7236   C.2       5 RES5   0.0000
   532 H5C      2.6925   7.8573   0.0896   H         5 RES5   0.0000
   533 C7C      1.6268   7.1870   1.6555   C.2       5 RES5   0.0000
   534 H7C      0.9860   7.8603   1.6618   H         5 RES5   0.0000
   535 C6C      1.5933   6.1525   2.5778   C.2       5 RES5   0.0000
   536 C1D      6.2318   0.5616   4.9330   C.2       5 RES5   0.0000
   537 H1D      6.6461   0.9671   5.6594   H         5 RES5   0.0000
   538 C2D      5.8183  -0.8102   3.3284   C.2       5 RES5   0.0000
   539 C3D      5.8020  -1.8555   2.4031   C.2       5 RES5   0.0000
   540 H3D      6.4931  -2.4768   2.3557   H         5 RES5   0.0000
   541 C4D      4.7115  -1.9215   1.5667   C.2       5 RES5   0.0000
   542 H4D      4.6563  -2.6177   0.9518   H         5 RES5   0.0000
   543 C5D      3.6799  -0.9728   1.6120   C.2       5 RES5   0.0000
   544 H5D      2.9634  -1.0482   1.0253   H         5 RES5   0.0000
   545 C7D      3.7132   0.0715   2.5157   C.2       5 RES5   0.0000
   546 H7D      3.0320   0.7031   2.5459   H         5 RES5   0.0000
   547 C6D      4.7977   0.1404   3.3766   C.2       5 RES5   0.0000
   548 N1A      6.1869   5.6309   5.7790   N.2       5 RES5   0.0000
   549 N3A      4.5889   4.0481   5.8293   N.2       5 RES5   0.0000
   550 N1B     10.4244   9.4118   5.7520   N.2       5 RES5   0.0000
   551 N3B      8.8619   7.7938   5.7949   N.2       5 RES5   0.0000
   552 N3C      0.6919   5.8600   3.5832   N.2       5 RES5   0.0000
   553 N1C      2.2367   4.2247   3.5537   N.2       5 RES5   0.0000
   554 N3D      5.0894   1.0185   4.4026   N.2       5 RES5   0.0000
   555 N1D      6.7278  -0.5218   4.3353   N.2       5 RES5   0.0000
   556 Co2     11.4284   2.7261   4.8455   Co.oh     5 RES5   0.0000
   557 C1A      9.9229   5.1605   4.4425   C.2       5 RES5   0.0000
   558 H1A     10.3497   5.5719   5.1583   H         5 RES5   0.0000
   559 C2A      8.5040   4.7529   2.8779   C.2       5 RES5   0.0000
   560 C6A      9.5006   3.7766   2.8416   C.2       5 RES5   0.0000
   561 C7A      9.5010   2.7891   1.8687   C.2       5 RES5   0.0000
   562 H7A     10.1637   2.1380   1.8420   H         5 RES5   0.0000
   563 C5A      8.4812   2.8094   0.9370   C.2       5 RES5   0.0000
   564 H5A      8.4575   2.1633   0.2697   H         5 RES5   0.0000
   565 C4A      7.4809   3.7910   0.9826   C.2       5 RES5   0.0000
   566 H4A      6.8117   3.7825   0.3362   H         5 RES5   0.0000
   567 C3A      7.4584   4.7665   1.9528   C.2       5 RES5   0.0000
   568 H3A      6.7815   5.4038   1.9898   H         5 RES5   0.0000
   569 C1B      5.0043   8.2717   4.4650   C.2       5 RES5   0.0000
   570 H1B      4.5765   7.8431   5.1701   H         5 RES5   0.0000
   571 C2B      5.4712   9.7169   2.9416   C.2       5 RES5   0.0000
   572 C6B      6.4450   8.7175   2.9216   C.2       5 RES5   0.0000
   573 C7B      7.5248   8.7866   2.0550   C.2       5 RES5   0.0000
   574 H7B      8.1749   8.1226   2.0399   H         5 RES5   0.0000
   575 C5B      7.6015   9.8810   1.2155   C.2       5 RES5   0.0000
   576 H5B      8.3163   9.9575   0.6268   H         5 RES5   0.0000
   577 C4B      6.6167  10.8789   1.2383   C.2       5 RES5   0.0000
   578 H4B      6.7006  11.6076   0.6659   H         5 RES5   0.0000
   579 C3B      5.5307  10.8144   2.0808   C.2       5 RES5   0.0000
   580 H3B      4.8701  11.4697   2.0781   H         5 RES5   0.0000
   581 C1C     13.8577   4.7050   5.5834   C.2       5 RES5   0.0000
   582 H1C     14.2987   4.2726   4.8889   H         5 RES5   0.0000
   583 C2C     12.4241   5.1432   7.1262   C.2       5 RES5   0.0000
   584 C3C     11.3782   5.1414   8.0511   C.2       5 RES5   0.0000
   585 H3C     10.7229   4.4809   8.0463   H         5 RES5   0.0000
   586 C4C     11.3672   6.1644   8.9712   C.2       5 RES5   0.0000
   587 H4C     10.6973   6.1831   9.6166   H         5 RES5   0.0000
   588 C5C     12.3345   7.1796   8.9673   C.2       5 RES5   0.0000
   589 H5C     12.2884   7.8573   9.6013   H         5 RES5   0.0000
   590 C7C     13.3542   7.1870   8.0354   C.2       5 RES5   0.0000
   591 H7C     13.9949   7.8603   8.0291   H         5 RES5   0.0000
   592 C6C     13.3877   6.1525   7.1132   C.2       5 RES5   0.0000
   593 C1D      8.7492   0.5616   4.7579   C.2       5 RES5   0.0000
   594 H1D      8.3349   0.9671   4.0315   H         5 RES5   0.0000
   595 C2D      9.1627  -0.8102   6.3625   C.2       5 RES5   0.0000
   596 C3D      9.1789  -1.8555   7.2878   C.2       5 RES5   0.0000
   597 H3D      8.4879  -2.4768   7.3353   H         5 RES5   0.0000
   598 C4D     10.2695  -1.9215   8.1243   C.2       5 RES5   0.0000
   599 H4D     10.3246  -2.6177   8.7391   H         5 RES5   0.0000
   600 C5D     11.3010  -0.9728   8.0789   C.2       5 RES5   0.0000
   601 H5D     12.0175  -1.0482   8.6656   H         5 RES5   0.0000
   602 C7D     11.2677   0.0715   7.1752   C.2       5 RES5   0.0000
   603 H7D     11.9489   0.7031   7.1450   H         5 RES5   0.0000
   604 C6D     10.1833   0.1404   6.3143   C.2       5 RES5   0.0000
   605 N1A      8.7940   5.6309   3.9119   N.2       5 RES5   0.0000
   606 N3A     10.3921   4.0481   3.8616   N.2       5 RES5   0.0000
   607 N1B      4.5566   9.4118   3.9389   N.2       5 RES5   0.0000
   608 N3B      6.1191   7.7938   3.8960   N.2       5 RES5   0.0000
   609 N3C     14.2890   5.8600   6.1077   N.2       5 RES5   0.0000
   610 N1C     12.7443   4.2247   6.1373   N.2       5 RES5   0.0000
   611 N3D      9.8915   1.0185   5.2883   N.2       5 RES5   0.0000
   612 N1D      8.2531  -0.5218   5.3556   N.2       5 RES5   0.0000
   613 Co2      3.3754  10.7487   4.8455   Co.oh     5 RES5   0.0000
   614 Co2     11.6056  10.7487   4.8455   Co.oh     5 RES5   0.0000
   615 Co3     15.5435   6.6427   4.8455   Co.oh     5 RES5   0.0000
   616 Co3     -0.5625   6.6427   4.8455   Co.oh     5 RES5   0.0000
   617 N1B     12.6096   1.3892   3.9389   N.1       5 RES5   0.0000
   618 N1B      2.3714   1.3892   5.7520   N.1       5 RES5   0.0000
   619 N3C      6.2360  -2.1626   6.1077   N.1       5 RES5   0.0000
   620 N3C      8.7449  -2.1626   3.5832   N.1       5 RES5   0.0000
   621 Co1      6.3654   9.3864  14.5364   Co.oh     6 RES6   0.0000
   622 Co2      2.4275  13.3191  14.5364   Co.oh     6 RES6   0.0000
   623 Co3      6.3654  17.4251  14.5364   Co.oh     6 RES6   0.0000
   624 C1A      3.9330  10.8847  14.9393   C.2       6 RES6   0.0000
   625 H1A      3.5062  10.4733  14.2235   H         6 RES6   0.0000
   626 C2A      5.3519  11.2923  16.5040   C.2       6 RES6   0.0000
   627 C6A      4.3553  12.2686  16.5402   C.2       6 RES6   0.0000
   628 C7A      4.3549  13.2561  17.5132   C.2       6 RES6   0.0000
   629 H7A      3.6922  13.9072  17.5398   H         6 RES6   0.0000
   630 C5A      5.3747  13.2358  18.4449   C.2       6 RES6   0.0000
   631 H5A      5.3984  13.8819  19.1121   H         6 RES6   0.0000
   632 C4A      6.3750  12.2542  18.3992   C.2       6 RES6   0.0000
   633 H4A      7.0442  12.2627  19.0456   H         6 RES6   0.0000
   634 C3A      6.3975  11.2787  17.4290   C.2       6 RES6   0.0000
   635 H3A      7.0744  10.6414  17.3920   H         6 RES6   0.0000
   636 C1B      8.8516   7.7735  14.9168   C.2       6 RES6   0.0000
   637 H1B      9.2794   8.2021  14.2117   H         6 RES6   0.0000
   638 C2B      8.3847   6.3283  16.4402   C.2       6 RES6   0.0000
   639 C6B      7.4109   7.3277  16.4602   C.2       6 RES6   0.0000
   640 C7B      6.3311   7.2586  17.3269   C.2       6 RES6   0.0000
   641 H7B      5.6810   7.9226  17.3419   H         6 RES6   0.0000
   642 C5B      6.2544   6.1642  18.1663   C.2       6 RES6   0.0000
   643 H5B      5.5396   6.0877  18.7550   H         6 RES6   0.0000
   644 C4B      7.2392   5.1663  18.1435   C.2       6 RES6   0.0000
   645 H4B      7.1553   4.4376  18.7159   H         6 RES6   0.0000
   646 C3B      8.3252   5.2308  17.3011   C.2       6 RES6   0.0000
   647 H3B      8.9858   4.5755  17.3037   H         6 RES6   0.0000
   648 C1C     -0.0018  11.3402  13.7984   C.2       6 RES6   0.0000
   649 H1C     -0.4428  11.7726  14.4929   H         6 RES6   0.0000
   650 C2C      1.4318  10.9020  12.2557   C.2       6 RES6   0.0000
   651 C3C      2.4777  10.9038  11.3307   C.2       6 RES6   0.0000
   652 H3C      3.1330  11.5643  11.3356   H         6 RES6   0.0000
   653 C4C      2.4887   9.8808  10.4106   C.2       6 RES6   0.0000
   654 H4C      3.1586   9.8621   9.7652   H         6 RES6   0.0000
   655 C5C      1.5214   8.8656  10.4145   C.2       6 RES6   0.0000
   656 H5C      1.5675   8.1879   9.7805   H         6 RES6   0.0000
   657 C7C      0.5018   8.8582  11.3464   C.2       6 RES6   0.0000
   658 H7C     -0.1390   8.1849  11.3527   H         6 RES6   0.0000
   659 C6C      0.4682   9.8927  12.2687   C.2       6 RES6   0.0000
   660 C1D      5.1067  15.4836  14.6239   C.2       6 RES6   0.0000
   661 H1D      5.5210  15.0781  15.3503   H         6 RES6   0.0000
   662 C2D      4.6932  16.8554  13.0193   C.2       6 RES6   0.0000
   663 C3D      4.6770  17.9007  12.0940   C.2       6 RES6   0.0000
   664 H3D      5.3680  18.5220  12.0466   H         6 RES6   0.0000
   665 C4D      3.5864  17.9667  11.2576   C.2       6 RES6   0.0000
   666 H4D      3.5313  18.6629  10.6427   H         6 RES6   0.0000
   667 C5D      2.5549  17.0180  11.3029   C.2       6 RES6   0.0000
   668 H5D      1.8384  17.0934  10.7162   H         6 RES6   0.0000
   669 C7D      2.5882  15.9737  12.2066   C.2       6 RES6   0.0000
   670 H7D      1.9070  15.3421  12.2368   H         6 RES6   0.0000
   671 C6D      3.6726  15.9048  13.0675   C.2       6 RES6   0.0000
   672 N1A      5.0619  10.4143  15.4699   N.2       6 RES6   0.0000
   673 N3A      3.4638  11.9971  15.5202   N.2       6 RES6   0.0000
   674 N1B      9.2993   6.6334  15.4429   N.2       6 RES6   0.0000
   675 N3B      7.7368   8.2514  15.4858   N.2       6 RES6   0.0000
   676 N3C     -0.4331  10.1852  13.2741   N.2       6 RES6   0.0000
   677 N1C      1.1116  11.8205  13.2446   N.2       6 RES6   0.0000
   678 N3D      3.9644  15.0267  14.0935   N.2       6 RES6   0.0000
   679 N1D      5.6028  16.5670  14.0262   N.2       6 RES6   0.0000
   680 Co2     10.3033  13.3191  14.5364   Co.oh     6 RES6   0.0000
   681 C1A      8.7978  10.8847  14.1334   C.2       6 RES6   0.0000
   682 H1A      9.2246  10.4733  14.8492   H         6 RES6   0.0000
   683 C2A      7.3790  11.2923  12.5688   C.2       6 RES6   0.0000
   684 C6A      8.3755  12.2686  12.5325   C.2       6 RES6   0.0000
   685 C7A      8.3759  13.2561  11.5596   C.2       6 RES6   0.0000
   686 H7A      9.0386  13.9072  11.5329   H         6 RES6   0.0000
   687 C5A      7.3562  13.2358  10.6279   C.2       6 RES6   0.0000
   688 H5A      7.3324  13.8819   9.9607   H         6 RES6   0.0000
   689 C4A      6.3559  12.2542  10.6735   C.2       6 RES6   0.0000
   690 H4A      5.6867  12.2627  10.0271   H         6 RES6   0.0000
   691 C3A      6.3334  11.2787  11.6437   C.2       6 RES6   0.0000
   692 H3A      5.6565  10.6414  11.6808   H         6 RES6   0.0000
   693 C1B      3.8792   7.7735  14.1559   C.2       6 RES6   0.0000
   694 H1B      3.4515   8.2021  14.8610   H         6 RES6   0.0000
   695 C2B      4.3461   6.3283  12.6325   C.2       6 RES6   0.0000
   696 C6B      5.3200   7.3277  12.6125   C.2       6 RES6   0.0000
   697 C7B      6.3998   7.2586  11.7459   C.2       6 RES6   0.0000
   698 H7B      7.0499   7.9226  11.7308   H         6 RES6   0.0000
   699 C5B      6.4765   6.1642  10.9064   C.2       6 RES6   0.0000
   700 H5B      7.1913   6.0877  10.3177   H         6 RES6   0.0000
   701 C4B      5.4917   5.1663  10.9292   C.2       6 RES6   0.0000
   702 H4B      5.5756   4.4376  10.3568   H         6 RES6   0.0000
   703 C3B      4.4057   5.2308  11.7717   C.2       6 RES6   0.0000
   704 H3B      3.7451   4.5755  11.7691   H         6 RES6   0.0000
   705 C1C     12.7326  11.3402  15.2743   C.2       6 RES6   0.0000
   706 H1C     13.1737  11.7726  14.5799   H         6 RES6   0.0000
   707 C2C     11.2990  10.9020  16.8171   C.2       6 RES6   0.0000
   708 C3C     10.2532  10.9038  17.7420   C.2       6 RES6   0.0000
   709 H3C      9.5978  11.5643  17.7372   H         6 RES6   0.0000
   710 C4C     10.2422   9.8808  18.6621   C.2       6 RES6   0.0000
   711 H4C      9.5722   9.8621  19.3075   H         6 RES6   0.0000
   712 C5C     11.2094   8.8656  18.6582   C.2       6 RES6   0.0000
   713 H5C     11.1634   8.1879  19.2922   H         6 RES6   0.0000
   714 C7C     12.2291   8.8582  17.7263   C.2       6 RES6   0.0000
   715 H7C     12.8699   8.1849  17.7201   H         6 RES6   0.0000
   716 C6C     12.2626   9.8927  16.8041   C.2       6 RES6   0.0000
   717 C1D      7.6241  15.4836  14.4488   C.2       6 RES6   0.0000
   718 H1D      7.2098  15.0781  13.7224   H         6 RES6   0.0000
   719 C2D      8.0376  16.8554  16.0534   C.2       6 RES6   0.0000
   720 C3D      8.0539  17.9007  16.9787   C.2       6 RES6   0.0000
   721 H3D      7.3628  18.5220  17.0262   H         6 RES6   0.0000
   722 C4D      9.1444  17.9667  17.8152   C.2       6 RES6   0.0000
   723 H4D      9.1996  18.6629  18.4300   H         6 RES6   0.0000
   724 C5D     10.1760  17.0180  17.7698   C.2       6 RES6   0.0000
   725 H5D     10.8925  17.0934  18.3565   H         6 RES6   0.0000
   726 C7D     10.1427  15.9737  16.8662   C.2       6 RES6   0.0000
   727 H7D     10.8239  15.3421  16.8359   H         6 RES6   0.0000
   728 C6D      9.0582  15.9048  16.0053   C.2       6 RES6   0.0000
   729 N1A      7.6690  10.4143  13.6029   N.2       6 RES6   0.0000
   730 N3A      9.2670  11.9971  13.5525   N.2       6 RES6   0.0000
   731 N1B      3.4315   6.6334  13.6299   N.2       6 RES6   0.0000
   732 N3B      4.9940   8.2514  13.5869   N.2       6 RES6   0.0000
   733 N3C     13.1640  10.1852  15.7986   N.2       6 RES6   0.0000
   734 N1C     11.6192  11.8205  15.8282   N.2       6 RES6   0.0000
   735 N3D      8.7665  15.0267  14.9792   N.2       6 RES6   0.0000
   736 N1D      7.1281  16.5670  15.0465   N.2       6 RES6   0.0000
   737 Co2      2.2503   5.2965  14.5364   Co.oh     6 RES6   0.0000
   738 Co2     10.4805   5.2965  14.5364   Co.oh     6 RES6   0.0000
   739 Co3     14.4184   9.4025  14.5364   Co.oh     6 RES6   0.0000
   740 Co3     -1.6876   9.4025  14.5364   Co.oh     6 RES6   0.0000
   741 N1B     11.4845  14.6560  13.6299   N.1       6 RES6   0.0000
   742 N1B      1.2463  14.6560  15.4429   N.1       6 RES6   0.0000
   743 N3C      5.1110  18.2078  15.7986   N.1       6 RES6   0.0000
   744 N3C      7.6199  18.2078  13.2741   N.1       6 RES6   0.0000
@<TRIPOS>BOND
     1     1    52   un
     2     1    55   un
     3     1   109   un
     4     1   112   un
     5     2    53   un
     6     2    57   un
     7     2    58   un
     8     2   122   un
     9     3    59   un
    10     3   116   un
    11     3   123   un
    12     3   124   un
    13     4     5    1
    14     4    52   un
    15     4    53   un
    16     6     7   un
    17     6    14   un
    18     6    52   un
    19     7     8   un
    20     7    53   un
    21     8     9    1
    22     8    10   un
    23    10    11    1
    24    10    12   un
    25    12    13    1
    26    12    14   un
    27    14    15    1
    28    16    17    1
    29    16    54   un
    30    16    55   un
    31    18    19   un
    32    18    26   un
    33    18    54   un
    34    19    20   un
    35    19    55   un
    36    20    21    1
    37    20    22   un
    38    22    23    1
    39    22    24   un
    40    24    25    1
    41    24    26   un
    42    26    27    1
    43    28    29    1
    44    28    56   un
    45    28    57   un
    46    30    31   un
    47    30    39   un
    48    30    57   un
    49    31    32    1
    50    31    33   un
    51    33    34    1
    52    33    35   un
    53    35    36    1
    54    35    37   un
    55    37    38    1
    56    37    39   un
    57    39    56   un
    58    40    41    1
    59    40    58   un
    60    40    59   un
    61    42    43   un
    62    42    51   un
    63    42    59   un
    64    43    44    1
    65    43    45   un
    66    45    46    1
    67    45    47   un
    68    47    48    1
    69    47    49   un
    70    49    50    1
    71    49    51   un
    72    51    58   un
    73    54   118   un
    74    56   120   un
    75    60   110   un
    76    60   114   un
    77    60   115   un
    78    60   121   un
    79    61    62    1
    80    61   109   un
    81    61   110   un
    82    63    64   un
    83    63    71   un
    84    63   109   un
    85    64    65   un
    86    64   110   un
    87    65    66    1
    88    65    67   un
    89    67    68    1
    90    67    69   un
    91    69    70    1
    92    69    71   un
    93    71    72    1
    94    73    74    1
    95    73   111   un
    96    73   112   un
    97    75    76   un
    98    75    83   un
    99    75   111   un
   100    76    77   un
   101    76   112   un
   102    77    78    1
   103    77    79   un
   104    79    80    1
   105    79    81   un
   106    81    82    1
   107    81    83   un
   108    83    84    1
   109    85    86    1
   110    85   113   un
   111    85   114   un
   112    87    88   un
   113    87    96   un
   114    87   114   un
   115    88    89    1
   116    88    90   un
   117    90    91    1
   118    90    92   un
   119    92    93    1
   120    92    94   un
   121    94    95    1
   122    94    96   un
   123    96   113   un
   124    97    98    1
   125    97   115   un
   126    97   116   un
   127    99   100   un
   128    99   108   un
   129    99   116   un
   130   100   101    1
   131   100   102   un
   132   102   103    1
   133   102   104   un
   134   104   105    1
   135   104   106   un
   136   106   107    1
   137   106   108   un
   138   108   115   un
   139   111   117   un
   140   113   119   un
   141   125   176   un
   142   125   179   un
   143   125   233   un
   144   125   236   un
   145   126   177   un
   146   126   181   un
   147   126   182   un
   148   126   246   un
   149   127   183   un
   150   127   240   un
   151   127   247   un
   152   127   248   un
   153   128   129    1
   154   128   176   un
   155   128   177   un
   156   130   131   un
   157   130   138   un
   158   130   176   un
   159   131   132   un
   160   131   177   un
   161   132   133    1
   162   132   134   un
   163   134   135    1
   164   134   136   un
   165   136   137    1
   166   136   138   un
   167   138   139    1
   168   140   141    1
   169   140   178   un
   170   140   179   un
   171   142   143   un
   172   142   150   un
   173   142   178   un
   174   143   144   un
   175   143   179   un
   176   144   145    1
   177   144   146   un
   178   146   147    1
   179   146   148   un
   180   148   149    1
   181   148   150   un
   182   150   151    1
   183   152   153    1
   184   152   180   un
   185   152   181   un
   186   154   155   un
   187   154   163   un
   188   154   181   un
   189   155   156    1
   190   155   157   un
   191   157   158    1
   192   157   159   un
   193   159   160    1
   194   159   161   un
   195   161   162    1
   196   161   163   un
   197   163   180   un
   198   164   165    1
   199   164   182   un
   200   164   183   un
   201   166   167   un
   202   166   175   un
   203   166   183   un
   204   167   168    1
   205   167   169   un
   206   169   170    1
   207   169   171   un
   208   171   172    1
   209   171   173   un
   210   173   174    1
   211   173   175   un
   212   175   182   un
   213   178   242   un
   214   180   244   un
   215   184   234   un
   216   184   238   un
   217   184   239   un
   218   184   245   un
   219   185   186    1
   220   185   233   un
   221   185   234   un
   222   187   188   un
   223   187   195   un
   224   187   233   un
   225   188   189   un
   226   188   234   un
   227   189   190    1
   228   189   191   un
   229   191   192    1
   230   191   193   un
   231   193   194    1
   232   193   195   un
   233   195   196    1
   234   197   198    1
   235   197   235   un
   236   197   236   un
   237   199   200   un
   238   199   207   un
   239   199   235   un
   240   200   201   un
   241   200   236   un
   242   201   202    1
   243   201   203   un
   244   203   204    1
   245   203   205   un
   246   205   206    1
   247   205   207   un
   248   207   208    1
   249   209   210    1
   250   209   237   un
   251   209   238   un
   252   211   212   un
   253   211   220   un
   254   211   238   un
   255   212   213    1
   256   212   214   un
   257   214   215    1
   258   214   216   un
   259   216   217    1
   260   216   218   un
   261   218   219    1
   262   218   220   un
   263   220   237   un
   264   221   222    1
   265   221   239   un
   266   221   240   un
   267   223   224   un
   268   223   232   un
   269   223   240   un
   270   224   225    1
   271   224   226   un
   272   226   227    1
   273   226   228   un
   274   228   229    1
   275   228   230   un
   276   230   231    1
   277   230   232   un
   278   232   239   un
   279   235   241   un
   280   237   243   un
   281   249   300   un
   282   249   303   un
   283   249   357   un
   284   249   360   un
   285   250   301   un
   286   250   305   un
   287   250   306   un
   288   250   370   un
   289   251   307   un
   290   251   364   un
   291   251   371   un
   292   251   372   un
   293   252   253    1
   294   252   300   un
   295   252   301   un
   296   254   255   un
   297   254   262   un
   298   254   300   un
   299   255   256   un
   300   255   301   un
   301   256   257    1
   302   256   258   un
   303   258   259    1
   304   258   260   un
   305   260   261    1
   306   260   262   un
   307   262   263    1
   308   264   265    1
   309   264   302   un
   310   264   303   un
   311   266   267   un
   312   266   274   un
   313   266   302   un
   314   267   268   un
   315   267   303   un
   316   268   269    1
   317   268   270   un
   318   270   271    1
   319   270   272   un
   320   272   273    1
   321   272   274   un
   322   274   275    1
   323   276   277    1
   324   276   304   un
   325   276   305   un
   326   278   279   un
   327   278   287   un
   328   278   305   un
   329   279   280    1
   330   279   281   un
   331   281   282    1
   332   281   283   un
   333   283   284    1
   334   283   285   un
   335   285   286    1
   336   285   287   un
   337   287   304   un
   338   288   289    1
   339   288   306   un
   340   288   307   un
   341   290   291   un
   342   290   299   un
   343   290   307   un
   344   291   292    1
   345   291   293   un
   346   293   294    1
   347   293   295   un
   348   295   296    1
   349   295   297   un
   350   297   298    1
   351   297   299   un
   352   299   306   un
   353   302   366   un
   354   304   368   un
   355   308   358   un
   356   308   362   un
   357   308   363   un
   358   308   369   un
   359   309   310    1
   360   309   357   un
   361   309   358   un
   362   311   312   un
   363   311   319   un
   364   311   357   un
   365   312   313   un
   366   312   358   un
   367   313   314    1
   368   313   315   un
   369   315   316    1
   370   315   317   un
   371   317   318    1
   372   317   319   un
   373   319   320    1
   374   321   322    1
   375   321   359   un
   376   321   360   un
   377   323   324   un
   378   323   331   un
   379   323   359   un
   380   324   325   un
   381   324   360   un
   382   325   326    1
   383   325   327   un
   384   327   328    1
   385   327   329   un
   386   329   330    1
   387   329   331   un
   388   331   332    1
   389   333   334    1
   390   333   361   un
   391   333   362   un
   392   335   336   un
   393   335   344   un
   394   335   362   un
   395   336   337    1
   396   336   338   un
   397   338   339    1
   398   338   340   un
   399   340   341    1
   400   340   342   un
   401   342   343    1
   402   342   344   un
   403   344   361   un
   404   345   346    1
   405   345   363   un
   406   345   364   un
   407   347   348   un
   408   347   356   un
   409   347   364   un
   410   348   349    1
   411   348   350   un
   412   350   351    1
   413   350   352   un
   414   352   353    1
   415   352   354   un
   416   354   355    1
   417   354   356   un
   418   356   363   un
   419   359   365   un
   420   361   367   un
   421   373   424   un
   422   373   427   un
   423   373   481   un
   424   373   484   un
   425   374   425   un
   426   374   429   un
   427   374   430   un
   428   374   494   un
   429   375   431   un
   430   375   488   un
   431   375   495   un
   432   375   496   un
   433   376   377    1
   434   376   424   un
   435   376   425   un
   436   378   379   un
   437   378   386   un
   438   378   424   un
   439   379   380   un
   440   379   425   un
   441   380   381    1
   442   380   382   un
   443   382   383    1
   444   382   384   un
   445   384   385    1
   446   384   386   un
   447   386   387    1
   448   388   389    1
   449   388   426   un
   450   388   427   un
   451   390   391   un
   452   390   398   un
   453   390   426   un
   454   391   392   un
   455   391   427   un
   456   392   393    1
   457   392   394   un
   458   394   395    1
   459   394   396   un
   460   396   397    1
   461   396   398   un
   462   398   399    1
   463   400   401    1
   464   400   428   un
   465   400   429   un
   466   402   403   un
   467   402   411   un
   468   402   429   un
   469   403   404    1
   470   403   405   un
   471   405   406    1
   472   405   407   un
   473   407   408    1
   474   407   409   un
   475   409   410    1
   476   409   411   un
   477   411   428   un
   478   412   413    1
   479   412   430   un
   480   412   431   un
   481   414   415   un
   482   414   423   un
   483   414   431   un
   484   415   416    1
   485   415   417   un
   486   417   418    1
   487   417   419   un
   488   419   420    1
   489   419   421   un
   490   421   422    1
   491   421   423   un
   492   423   430   un
   493   426   490   un
   494   428   492   un
   495   432   482   un
   496   432   486   un
   497   432   487   un
   498   432   493   un
   499   433   434    1
   500   433   481   un
   501   433   482   un
   502   435   436   un
   503   435   443   un
   504   435   481   un
   505   436   437   un
   506   436   482   un
   507   437   438    1
   508   437   439   un
   509   439   440    1
   510   439   441   un
   511   441   442    1
   512   441   443   un
   513   443   444    1
   514   445   446    1
   515   445   483   un
   516   445   484   un
   517   447   448   un
   518   447   455   un
   519   447   483   un
   520   448   449   un
   521   448   484   un
   522   449   450    1
   523   449   451   un
   524   451   452    1
   525   451   453   un
   526   453   454    1
   527   453   455   un
   528   455   456    1
   529   457   458    1
   530   457   485   un
   531   457   486   un
   532   459   460   un
   533   459   468   un
   534   459   486   un
   535   460   461    1
   536   460   462   un
   537   462   463    1
   538   462   464   un
   539   464   465    1
   540   464   466   un
   541   466   467    1
   542   466   468   un
   543   468   485   un
   544   469   470    1
   545   469   487   un
   546   469   488   un
   547   471   472   un
   548   471   480   un
   549   471   488   un
   550   472   473    1
   551   472   474   un
   552   474   475    1
   553   474   476   un
   554   476   477    1
   555   476   478   un
   556   478   479    1
   557   478   480   un
   558   480   487   un
   559   483   489   un
   560   485   491   un
   561   497   548   un
   562   497   551   un
   563   497   605   un
   564   497   608   un
   565   498   549   un
   566   498   553   un
   567   498   554   un
   568   498   618   un
   569   499   555   un
   570   499   612   un
   571   499   619   un
   572   499   620   un
   573   500   501    1
   574   500   548   un
   575   500   549   un
   576   502   503   un
   577   502   510   un
   578   502   548   un
   579   503   504   un
   580   503   549   un
   581   504   505    1
   582   504   506   un
   583   506   507    1
   584   506   508   un
   585   508   509    1
   586   508   510   un
   587   510   511    1
   588   512   513    1
   589   512   550   un
   590   512   551   un
   591   514   515   un
   592   514   522   un
   593   514   550   un
   594   515   516   un
   595   515   551   un
   596   516   517    1
   597   516   518   un
   598   518   519    1
   599   518   520   un
   600   520   521    1
   601   520   522   un
   602   522   523    1
   603   524   525    1
   604   524   552   un
   605   524   553   un
   606   526   527   un
   607   526   535   un
   608   526   553   un
   609   527   528    1
   610   527   529   un
   611   529   530    1
   612   529   531   un
   613   531   532    1
   614   531   533   un
   615   533   534    1
   616   533   535   un
   617   535   552   un
   618   536   537    1
   619   536   554   un
   620   536   555   un
   621   538   539   un
   622   538   547   un
   623   538   555   un
   624   539   540    1
   625   539   541   un
   626   541   542    1
   627   541   543   un
   628   543   544    1
   629   543   545   un
   630   545   546    1
   631   545   547   un
   632   547   554   un
   633   550   614   un
   634   552   616   un
   635   556   606   un
   636   556   610   un
   637   556   611   un
   638   556   617   un
   639   557   558    1
   640   557   605   un
   641   557   606   un
   642   559   560   un
   643   559   567   un
   644   559   605   un
   645   560   561   un
   646   560   606   un
   647   561   562    1
   648   561   563   un
   649   563   564    1
   650   563   565   un
   651   565   566    1
   652   565   567   un
   653   567   568    1
   654   569   570    1
   655   569   607   un
   656   569   608   un
   657   571   572   un
   658   571   579   un
   659   571   607   un
   660   572   573   un
   661   572   608   un
   662   573   574    1
   663   573   575   un
   664   575   576    1
   665   575   577   un
   666   577   578    1
   667   577   579   un
   668   579   580    1
   669   581   582    1
   670   581   609   un
   671   581   610   un
   672   583   584   un
   673   583   592   un
   674   583   610   un
   675   584   585    1
   676   584   586   un
   677   586   587    1
   678   586   588   un
   679   588   589    1
   680   588   590   un
   681   590   591    1
   682   590   592   un
   683   592   609   un
   684   593   594    1
   685   593   611   un
   686   593   612   un
   687   595   596   un
   688   595   604   un
   689   595   612   un
   690   596   597    1
   691   596   598   un
   692   598   599    1
   693   598   600   un
   694   600   601    1
   695   600   602   un
   696   602   603    1
   697   602   604   un
   698   604   611   un
   699   607   613   un
   700   609   615   un
   701   621   672   un
   702   621   675   un
   703   621   729   un
   704   621   732   un
   705   622   673   un
   706   622   677   un
   707   622   678   un
   708   622   742   un
   709   623   679   un
   710   623   736   un
   711   623   743   un
   712   623   744   un
   713   624   625    1
   714   624   672   un
   715   624   673   un
   716   626   627   un
   717   626   634   un
   718   626   672   un
   719   627   628   un
   720   627   673   un
   721   628   629    1
   722   628   630   un
   723   630   631    1
   724   630   632   un
   725   632   633    1
   726   632   634   un
   727   634   635    1
   728   636   637    1
   729   636   674   un
   730   636   675   un
   731   638   639   un
   732   638   646   un
   733   638   674   un
   734   639   640   un
   735   639   675   un
   736   640   641    1
   737   640   642   un
   738   642   643    1
   739   642   644   un
   740   644   645    1
   741   644   646   un
   742   646   647    1
   743   648   649    1
   744   648   676   un
   745   648   677   un
   746   650   651   un
   747   650   659   un
   748   650   677   un
   749   651   652    1
   750   651   653   un
   751   653   654    1
   752   653   655   un
   753   655   656    1
   754   655   657   un
   755   657   658    1
   756   657   659   un
   757   659   676   un
   758   660   661    1
   759   660   678   un
   760   660   679   un
   761   662   663   un
   762   662   671   un
   763   662   679   un
   764   663   664    1
   765   663   665   un
   766   665   666    1
   767   665   667   un
   768   667   668    1
   769   667   669   un
   770   669   670    1
   771   669   671   un
   772   671   678   un
   773   674   738   un
   774   676   740   un
   775   680   730   un
   776   680   734   un
   777   680   735   un
   778   680   741   un
   779   681   682    1
   780   681   729   un
   781   681   730   un
   782   683   684   un
   783   683   691   un
   784   683   729   un
   785   684   685   un
   786   684   730   un
   787   685   686    1
   788   685   687   un
   789   687   688    1
   790   687   689   un
   791   689   690    1
   792   689   691   un
   793   691   692    1
   794   693   694    1
   795   693   731   un
   796   693   732   un
   797   695   696   un
   798   695   703   un
   799   695   731   un
   800   696   697   un
   801   696   732   un
   802   697   698    1
   803   697   699   un
   804   699   700    1
   805   699   701   un
   806   701   702    1
   807   701   703   un
   808   703   704    1
   809   705   706    1
   810   705   733   un
   811   705   734   un
   812   707   708   un
   813   707   716   un
   814   707   734   un
   815   708   709    1
   816   708   710   un
   817   710   711    1
   818   710   712   un
   819   712   713    1
   820   712   714   un
   821   714   715    1
   822   714   716   un
   823   716   733   un
   824   717   718    1
   825   717   735   un
   826   717   736   un
   827   719   720   un
   828   719   728   un
   829   719   736   un
   830   720   721    1
   831   720   722   un
   832   722   723    1
   833   722   724   un
   834   724   725    1
   835   724   726   un
   836   726   727    1
   837   726   728   un
   838   728   735   un
   839   731   737   un
   840   733   739   un
@<TRIPOS>SUBSTRUCTURE
     1 RES1        1 GROUP             0 ****  ****    0          
     2 RES2      125 GROUP             0 ****  ****    0          
     3 RES3      249 GROUP             0 ****  ****    0          
     4 RES4      373 GROUP             0 ****  ****    0          
     5 RES5      497 GROUP             0 ****  ****    0          
     6 RES6      621 GROUP             0 ****  ****    0          
@<TRIPOS>CRYSIN
   16.1060   16.0452   19.5120   90.0000   96.6220   90.0000    15     1
