@<TRIPOS>MOLECULE
4121899
  2252  2500    82
SMALL
NO_CHARGES
****
Generated from the CSD

@<TRIPOS>ATOM
     1 C1      15.7532   0.5674   2.7790   C.2       1 RES1   0.0000
     2 H1      16.1624   1.3996   2.7112   H         1 RES1   0.0000
     3 C2      14.6256  -1.0910   3.5687   C.2       1 RES1   0.0000
     4 C3      13.8440  -1.9630   4.2907   C.2       1 RES1   0.0000
     5 H3      13.4957  -1.7301   5.1198   H         1 RES1   0.0000
     6 C4      13.6072  -3.1934   3.7358   C.2       1 RES1   0.0000
     7 H4      13.0911  -3.8086   4.2040   H         1 RES1   0.0000
     8 C5      14.1233  -3.5538   2.4638   C.2       1 RES1   0.0000
     9 H5      13.9428  -4.3999   2.1201   H         1 RES1   0.0000
    10 C6      16.6716   0.5614   7.5599   C.2       1 RES1   0.0000
    11 C7      17.8693   0.9556   6.9893   C.2       1 RES1   0.0000
    12 H7      17.9004   1.3518   6.1476   H         1 RES1   0.0000
    13 C8      11.6025   1.1866   5.1529   C.2       1 RES1   0.0000
    14 H8      11.6566   0.6351   4.4073   H         1 RES1   0.0000
    15 C9      12.1888   2.3931   6.7875   C.2       1 RES1   0.0000
    16 C10     12.8497   3.1158   7.8279   C.2       1 RES1   0.0000
    17 H10     13.7750   3.1098   7.8957   H         1 RES1   0.0000
    18 C11     14.8440   3.9261   3.7831   C.2       1 RES1   0.0000
    19 C12     13.8083   3.5777   2.8405   C.2       1 RES1   0.0000
    20 H12     13.3578   2.7654   2.8878   H         1 RES1   0.0000
    21 C13     12.0957   3.8126   8.7154   C.2       1 RES1   0.0000
    22 H13     12.5244   4.2964   9.3837   H         1 RES1   0.0000
    23 C14     13.5210   4.5213   1.8522   C.2       1 RES1   0.0000
    24 H14     12.8531   4.3481   1.2295   H         1 RES1   0.0000
    25 N1      15.0176   0.2250   3.8351   N.2       1 RES1   0.0000
    26 N2      15.3521   3.1934   4.8739   N.2       1 RES1   0.0000
    27 N3      15.3670   0.6510   7.0697   N.2       1 RES1   0.0000
    28 N4      12.6842   1.6146   5.7708   N.2       1 RES1   0.0000
    29 Zn1     14.6363   1.4030   5.3846   Zn        1 RES1   0.0000
    30 C1       8.3680  -0.0863   7.7296   C.2       1 RES1   0.0000
    31 H1       9.2933  -0.0246   7.7974   H         1 RES1   0.0000
    32 C2       6.3680   0.0611   6.9399   C.2       1 RES1   0.0000
    33 C3       5.2220   0.3020   6.2180   C.2       1 RES1   0.0000
    34 H3       5.2495   0.7200   5.3888   H         1 RES1   0.0000
    35 C4       4.0380  -0.1082   6.7728   C.2       1 RES1   0.0000
    36 H4       3.2472   0.0312   6.3047   H         1 RES1   0.0000
    37 C5       3.9840  -0.7353   8.0449   C.2       1 RES1   0.0000
    38 H5       3.1610  -1.0021   8.3885   H         1 RES1   0.0000
    39 C6       8.8220  -0.8846   2.9487   C.2       1 RES1   0.0000
    40 C7       9.7623  -1.7248   3.5194   C.2       1 RES1   0.0000
    41 H7      10.1209  -1.5536   4.3611   H         1 RES1   0.0000
    42 C8       6.8289   3.8179   5.3557   C.2       1 RES1   0.0000
    43 H8       6.3783   3.4954   6.1013   H         1 RES1   0.0000
    44 C9       8.1668   3.9135   3.7211   C.2       1 RES1   0.0000
    45 C10      9.1232   3.7024   2.6808   C.2       1 RES1   0.0000
    46 H10      9.5807   2.8981   2.6130   H         1 RES1   0.0000
    47 C11     10.8221   2.3805   6.7255   C.2       1 RES1   0.0000
    48 C12     10.0025   3.1032   7.6682   C.2       1 RES1   0.0000
    49 H12      9.0738   3.0872   7.6209   H         1 RES1   0.0000
    50 C13      9.3496   4.7038   1.7933   C.2       1 RES1   0.0000
    51 H13      9.9830   4.5744   1.1250   H         1 RES1   0.0000
    52 C14     10.6761   3.8239   8.6565   C.2       1 RES1   0.0000
    53 H14     10.1922   4.3156   9.2792   H         1 RES1   0.0000
    54 N1       7.7036   0.3796   6.6735   N.2       1 RES1   0.0000
    55 N2      10.4416   1.5741   5.6347   N.2       1 RES1   0.0000
    56 N3       8.2473   0.2900   3.4390   N.2       1 RES1   0.0000
    57 N4       7.7404   3.0952   4.7378   N.2       1 RES1   0.0000
    58 Zn1      8.5332   1.2988   5.1240   Zn        1 RES1   0.0000
    59 C1      18.8797   7.2900   7.7296   C.2       1 RES1   0.0000
    60 H1      18.3636   8.0605   7.7974   H         1 RES1   0.0000
    61 C2      19.7521   5.4843   6.9399   C.2       1 RES1   0.0000
    62 C3      20.1165   4.3714   6.2180   C.2       1 RES1   0.0000
    63 H3      19.7407   4.1862   5.3888   H         1 RES1   0.0000
    64 C4      21.0637   3.5511   6.7728   C.2       1 RES1   0.0000
    65 H4      21.3384   2.7966   6.3047   H         1 RES1   0.0000
    66 C5      21.6338   3.8179   8.0449   C.2       1 RES1   0.0000
    67 H5      22.2763   3.2385   8.3885   H         1 RES1   0.0000
    68 C6      19.3441   8.0824   2.9487   C.2       1 RES1   0.0000
    69 C7      19.6016   9.3168   3.5194   C.2       1 RES1   0.0000
    70 H7      19.2740   9.5417   4.3611   H         1 RES1   0.0000
    71 C8      16.2682   4.0050   5.3557   C.2       1 RES1   0.0000
    72 H8      16.7728   3.7761   6.1013   H         1 RES1   0.0000
    73 C9      15.5164   5.1160   3.7211   C.2       1 RES1   0.0000
    74 C10     15.2210   6.0497   2.6808   C.2       1 RES1   0.0000
    75 H10     15.6888   6.8481   2.6130   H         1 RES1   0.0000
    76 C11     15.5164   8.1820   6.7255   C.2       1 RES1   0.0000
    77 C12     15.3003   7.1109   7.6682   C.2       1 RES1   0.0000
    78 H12     15.7785   6.3145   7.6209   H         1 RES1   0.0000
    79 C13     14.2405   5.7451   1.7933   C.2       1 RES1   0.0000
    80 H13     14.0359   6.3583   1.1250   H         1 RES1   0.0000
    81 C14     14.3394   7.3338   8.6565   C.2       1 RES1   0.0000
    82 H14     14.1555   6.6689   9.2792   H         1 RES1   0.0000
    83 N1      18.8085   6.4817   6.6735   N.2       1 RES1   0.0000
    84 N2      16.4050   8.2556   5.6347   N.2       1 RES1   0.0000
    85 N3      18.6142   6.9974   3.4390   N.2       1 RES1   0.0000
    86 N4      16.4383   5.1558   4.7378   N.2       1 RES1   0.0000
    87 Zn1     17.5976   6.7405   5.1240   Zn        1 RES1   0.0000
    88 C1      14.6210  13.3590   2.7790   C.2       1 RES1   0.0000
    89 H1      13.6957  13.2973   2.7112   H         1 RES1   0.0000
    90 C2      16.6210  13.2117   3.5687   C.2       1 RES1   0.0000
    91 C3      17.7670  12.9708   4.2907   C.2       1 RES1   0.0000
    92 H3      17.7395  12.5527   5.1198   H         1 RES1   0.0000
    93 C4      18.9510  13.3809   3.7358   C.2       1 RES1   0.0000
    94 H4      19.7418  13.2415   4.2040   H         1 RES1   0.0000
    95 C5      19.0050  14.0080   2.4638   C.2       1 RES1   0.0000
    96 H5      19.8280  14.2748   2.1201   H         1 RES1   0.0000
    97 C6      14.1670  14.1573   7.5599   C.2       1 RES1   0.0000
    98 C7      13.2267  14.9975   6.9893   C.2       1 RES1   0.0000
    99 H7      12.8681  14.8263   6.1476   H         1 RES1   0.0000
   100 C8      16.1601   9.4548   5.1529   C.2       1 RES1   0.0000
   101 H8      16.6107   9.7773   4.4073   H         1 RES1   0.0000
   102 C9      14.8222   9.3592   6.7875   C.2       1 RES1   0.0000
   103 C10     13.8658   9.5703   7.8279   C.2       1 RES1   0.0000
   104 H10     13.4083  10.3746   7.8957   H         1 RES1   0.0000
   105 C11     12.1669  10.8922   3.7831   C.2       1 RES1   0.0000
   106 C12     12.9865  10.1695   2.8405   C.2       1 RES1   0.0000
   107 H12     13.9152  10.1855   2.8878   H         1 RES1   0.0000
   108 C13     13.6394   8.5689   8.7154   C.2       1 RES1   0.0000
   109 H13     13.0060   8.6983   9.3837   H         1 RES1   0.0000
   110 C14     12.3129   9.4488   1.8522   C.2       1 RES1   0.0000
   111 H14     12.7968   8.9571   1.2295   H         1 RES1   0.0000
   112 N1      15.2854  12.8931   3.8351   N.2       1 RES1   0.0000
   113 N2      12.5474  11.6986   4.8739   N.2       1 RES1   0.0000
   114 N3      14.7417  12.9827   7.0697   N.2       1 RES1   0.0000
   115 N4      15.2486  10.1775   5.7708   N.2       1 RES1   0.0000
   116 Zn1     14.4558  11.9739   5.3846   Zn        1 RES1   0.0000
   117 C1       4.1093   5.9827   2.7790   C.2       1 RES1   0.0000
   118 H1       4.6254   5.2122   2.7112   H         1 RES1   0.0000
   119 C2       3.2369   7.7884   3.5687   C.2       1 RES1   0.0000
   120 C3       2.8725   8.9013   4.2907   C.2       1 RES1   0.0000
   121 H3       3.2483   9.0865   5.1198   H         1 RES1   0.0000
   122 C4       1.9253   9.7216   3.7358   C.2       1 RES1   0.0000
   123 H4       1.6506  10.4761   4.2040   H         1 RES1   0.0000
   124 C5       1.3552   9.4548   2.4638   C.2       1 RES1   0.0000
   125 H5       0.7127  10.0342   2.1201   H         1 RES1   0.0000
   126 C6       3.6449   5.1903   7.5599   C.2       1 RES1   0.0000
   127 C7       3.3874   3.9559   6.9893   C.2       1 RES1   0.0000
   128 H7       3.7150   3.7310   6.1476   H         1 RES1   0.0000
   129 C8       6.7208   9.2677   5.1529   C.2       1 RES1   0.0000
   130 H8       6.2162   9.4966   4.4073   H         1 RES1   0.0000
   131 C9       7.4726   8.1567   6.7875   C.2       1 RES1   0.0000
   132 C10      7.7680   7.2230   7.8279   C.2       1 RES1   0.0000
   133 H10      7.3002   6.4247   7.8957   H         1 RES1   0.0000
   134 C11      7.4726   5.0907   3.7831   C.2       1 RES1   0.0000
   135 C12      7.6887   6.1619   2.8405   C.2       1 RES1   0.0000
   136 H12      7.2105   6.9582   2.8878   H         1 RES1   0.0000
   137 C13      8.7485   7.5276   8.7154   C.2       1 RES1   0.0000
   138 H13      8.9531   6.9144   9.3837   H         1 RES1   0.0000
   139 C14      8.6496   5.9389   1.8522   C.2       1 RES1   0.0000
   140 H14      8.8335   6.6038   1.2295   H         1 RES1   0.0000
   141 N1       4.1805   6.7910   3.8351   N.2       1 RES1   0.0000
   142 N2       6.5840   5.0171   4.8739   N.2       1 RES1   0.0000
   143 N3       4.3748   6.2753   7.0697   N.2       1 RES1   0.0000
   144 N4       6.5507   8.1169   5.7708   N.2       1 RES1   0.0000
   145 Zn1      5.3914   6.5322   5.3846   Zn        1 RES1   0.0000
   146 C1       7.2358  12.7053   7.7296   C.2       1 RES1   0.0000
   147 H1       6.8266  11.8731   7.7974   H         1 RES1   0.0000
   148 C2       8.3634  14.3637   6.9399   C.2       1 RES1   0.0000
   149 C3       9.1450  15.2357   6.2180   C.2       1 RES1   0.0000
   150 H3       9.4933  15.0028   5.3888   H         1 RES1   0.0000
   151 C4       9.3818  16.4661   6.7728   C.2       1 RES1   0.0000
   152 H4       9.8979  17.0813   6.3047   H         1 RES1   0.0000
   153 C5       8.8657  16.8265   8.0449   C.2       1 RES1   0.0000
   154 H5       9.0462  17.6726   8.3885   H         1 RES1   0.0000
   155 C6       6.3174  12.7113   2.9487   C.2       1 RES1   0.0000
   156 C7       5.1197  12.3171   3.5194   C.2       1 RES1   0.0000
   157 H7       5.0886  11.9209   4.3611   H         1 RES1   0.0000
   158 C8      11.3865  12.0861   5.3557   C.2       1 RES1   0.0000
   159 H8      11.3324  12.6376   6.1013   H         1 RES1   0.0000
   160 C9      10.8002  10.8796   3.7211   C.2       1 RES1   0.0000
   161 C10     10.1393  10.1569   2.6808   C.2       1 RES1   0.0000
   162 H10      9.2140  10.1629   2.6130   H         1 RES1   0.0000
   163 C11      8.1450   9.3466   6.7255   C.2       1 RES1   0.0000
   164 C12      9.1807   9.6950   7.6682   C.2       1 RES1   0.0000
   165 H12      9.6312  10.5073   7.6209   H         1 RES1   0.0000
   166 C13     10.8933   9.4601   1.7933   C.2       1 RES1   0.0000
   167 H13     10.4646   8.9763   1.1250   H         1 RES1   0.0000
   168 C14      9.4680   8.7514   8.6565   C.2       1 RES1   0.0000
   169 H14     10.1359   8.9246   9.2792   H         1 RES1   0.0000
   170 N1       7.9714  13.0477   6.6735   N.2       1 RES1   0.0000
   171 N2       7.6369  10.0793   5.6347   N.2       1 RES1   0.0000
   172 N3       7.6220  12.6217   3.4390   N.2       1 RES1   0.0000
   173 N4      10.3048  11.6581   4.7378   N.2       1 RES1   0.0000
   174 Zn1      8.3527  11.8697   5.1240   Zn        1 RES1   0.0000
   175 C1       4.2587   7.2038   8.0334   C.2       1 RES1   0.0000
   176 C1      14.6210   0.0863   8.0334   C.2       1 RES1   0.0000
   177 C1      15.6038  12.6190   8.0334   C.2       1 RES1   0.0000
   178 C1      18.7303   6.0689   2.4753   C.2       1 RES1   0.0000
   179 C1       8.3680  13.1864   2.4753   C.2       1 RES1   0.0000
   180 C1       7.3852   0.6537   2.4753   C.2       1 RES1   0.0000
   181 C2       3.1311   5.5453   8.8231   C.2       1 RES1   0.0000
   182 C2      16.6210  -0.0611   8.8231   C.2       1 RES1   0.0000
   183 C2      14.7314  14.4248   8.8231   C.2       1 RES1   0.0000
   184 C2      19.8579   7.7274   1.6856   C.2       1 RES1   0.0000
   185 C2       6.3680  13.3338   1.6856   C.2       1 RES1   0.0000
   186 C2       8.2576  -1.1521   1.6856   C.2       1 RES1   0.0000
   187 C5       2.6288   3.0826   7.7181   C.2       1 RES1   0.0000
   188 C5      19.0050   0.7353   7.7181   C.2       1 RES1   0.0000
   189 C5      12.8497  16.0912   7.7181   C.2       1 RES1   0.0000
   190 C5      20.3602  10.1901   2.7906   C.2       1 RES1   0.0000
   191 C5       3.9840  12.5374   2.7906   C.2       1 RES1   0.0000
   192 C5      10.1393  -2.8185   2.7906   C.2       1 RES1   0.0000
   193 C6      16.6716  13.8341   2.3056   C.2       1 RES1   0.0000
   194 C6       2.6725   7.5210   2.3056   C.2       1 RES1   0.0000
   195 C6      15.1394  -1.4461   2.3056   C.2       1 RES1   0.0000
   196 C6       6.3174  -0.5614   8.2031   C.2       1 RES1   0.0000
   197 C6      20.3165   5.7517   8.2031   C.2       1 RES1   0.0000
   198 C6       7.8496  14.7188   8.2031   C.2       1 RES1   0.0000
   199 C7      17.8693  14.2283   1.7350   C.2       1 RES1   0.0000
   200 C7       1.7322   8.3611   1.7350   C.2       1 RES1   0.0000
   201 C7      14.8819  -2.6804   1.7350   C.2       1 RES1   0.0000
   202 C7       5.1197  -0.9556   8.7737   C.2       1 RES1   0.0000
   203 C7      21.2568   4.9116   8.7737   C.2       1 RES1   0.0000
   204 C7       8.1071  15.9531   8.7737   C.2       1 RES1   0.0000
   205 N3      15.3670  13.9237   1.8154   N.2       1 RES1   0.0000
   206 N3       3.2472   6.3463   1.8154   N.2       1 RES1   0.0000
   207 N3      15.8693  -0.3610   1.8154   N.2       1 RES1   0.0000
   208 N3       7.6220  -0.6510   8.6933   N.2       1 RES1   0.0000
   209 N3      19.7418   6.9264   8.6933   N.2       1 RES1   0.0000
   210 N3       7.1197  13.6337   8.6933   N.2       1 RES1   0.0000
   211 C1       4.2587   7.2038   8.0334   C.2       2 RES2   0.0000
   212 H1       4.6679   8.0360   7.9656   H         2 RES2   0.0000
   213 C2       3.1311   5.5453   8.8231   C.2       2 RES2   0.0000
   214 C3       2.3495   4.6733   9.5450   C.2       2 RES2   0.0000
   215 H3       2.0012   4.9063  10.3742   H         2 RES2   0.0000
   216 C4       2.1127   3.4429   8.9902   C.2       2 RES2   0.0000
   217 H4       1.5966   2.8277   9.4583   H         2 RES2   0.0000
   218 C5       2.6288   3.0826   7.7181   C.2       2 RES2   0.0000
   219 H5       2.4483   2.2365   7.3745   H         2 RES2   0.0000
   220 C6       5.1771   7.1978  12.8143   C.2       2 RES2   0.0000
   221 C7       6.3748   7.5920  12.2436   C.2       2 RES2   0.0000
   222 H7       6.4059   7.9882  11.4019   H         2 RES2   0.0000
   223 C8       0.1080   7.8229  10.4073   C.2       2 RES2   0.0000
   224 H8       0.1621   7.2715   9.6617   H         2 RES2   0.0000
   225 C9       0.6943   9.0294  12.0419   C.2       2 RES2   0.0000
   226 C10      1.3552   9.7521  13.0822   C.2       2 RES2   0.0000
   227 H10      2.2805   9.7461  13.1500   H         2 RES2   0.0000
   228 C11      3.3495  10.5624   9.0375   C.2       2 RES2   0.0000
   229 C12      2.3138  10.2140   8.0948   C.2       2 RES2   0.0000
   230 H12      1.8633   9.4017   8.1421   H         2 RES2   0.0000
   231 C13      0.6012  10.4489  13.9697   C.2       2 RES2   0.0000
   232 H13      1.0299  10.9327  14.6380   H         2 RES2   0.0000
   233 C14      2.0265  11.1577   7.1065   C.2       2 RES2   0.0000
   234 H14      1.3586  10.9845   6.4838   H         2 RES2   0.0000
   235 N1       3.5231   6.8613   9.0895   N.2       2 RES2   0.0000
   236 N2       3.8576   9.8298  10.1283   N.2       2 RES2   0.0000
   237 N3       3.8725   7.2874  12.3240   N.2       2 RES2   0.0000
   238 N4       1.1897   8.2510  11.0252   N.2       2 RES2   0.0000
   239 Zn1      3.1418   8.0393  10.6390   Zn        2 RES2   0.0000
   240 C1      -3.1265   6.5501  12.9840   C.2       2 RES2   0.0000
   241 H1      -2.2012   6.6118  13.0518   H         2 RES2   0.0000
   242 C2      -5.1265   6.6974  12.1943   C.2       2 RES2   0.0000
   243 C3      -6.2725   6.9383  11.4723   C.2       2 RES2   0.0000
   244 H3      -6.2450   7.3564  10.6432   H         2 RES2   0.0000
   245 C4      -7.4565   6.5282  12.0272   C.2       2 RES2   0.0000
   246 H4      -8.2473   6.6675  11.5590   H         2 RES2   0.0000
   247 C5      -7.5105   5.9010  13.2992   C.2       2 RES2   0.0000
   248 H5      -8.3335   5.6343  13.6429   H         2 RES2   0.0000
   249 C6      -2.6725   5.7517   8.2031   C.2       2 RES2   0.0000
   250 C7      -1.7322   4.9116   8.7737   C.2       2 RES2   0.0000
   251 H7      -1.3736   5.0828   9.6154   H         2 RES2   0.0000
   252 C8      -4.6656  10.4542  10.6101   C.2       2 RES2   0.0000
   253 H8      -5.1162  10.1317  11.3557   H         2 RES2   0.0000
   254 C9      -3.3277  10.5498   8.9755   C.2       2 RES2   0.0000
   255 C10     -2.3713  10.3388   7.9351   C.2       2 RES2   0.0000
   256 H10     -1.9138   9.5344   7.8673   H         2 RES2   0.0000
   257 C11     -0.6724   9.0168  11.9799   C.2       2 RES2   0.0000
   258 C12     -1.4920   9.7395  12.9225   C.2       2 RES2   0.0000
   259 H12     -2.4207   9.7236  12.8752   H         2 RES2   0.0000
   260 C13     -2.1449  11.3402   7.0476   C.2       2 RES2   0.0000
   261 H13     -1.5115  11.2108   6.3793   H         2 RES2   0.0000
   262 C14     -0.8184  10.4602  13.9108   C.2       2 RES2   0.0000
   263 H14     -1.3023  10.9520  14.5335   H         2 RES2   0.0000
   264 N1      -3.7909   7.0160  11.9279   N.2       2 RES2   0.0000
   265 N2      -1.0529   8.2105  10.8891   N.2       2 RES2   0.0000
   266 N3      -3.2472   6.9264   8.6933   N.2       2 RES2   0.0000
   267 N4      -3.7541   9.7315   9.9922   N.2       2 RES2   0.0000
   268 Zn1     -2.9613   7.9352  10.3784   Zn        2 RES2   0.0000
   269 C1       7.3852  13.9264  12.9840   C.2       2 RES2   0.0000
   270 H1       6.8691  14.6969  13.0518   H         2 RES2   0.0000
   271 C2       8.2576  12.1206  12.1943   C.2       2 RES2   0.0000
   272 C3       8.6220  11.0077  11.4723   C.2       2 RES2   0.0000
   273 H3       8.2462  10.8226  10.6432   H         2 RES2   0.0000
   274 C4       9.5692  10.1875  12.0272   C.2       2 RES2   0.0000
   275 H4       9.8439   9.4329  11.5590   H         2 RES2   0.0000
   276 C5      10.1393  10.4542  13.2992   C.2       2 RES2   0.0000
   277 H5      10.7818   9.8749  13.6429   H         2 RES2   0.0000
   278 C6       7.8496  14.7188   8.2031   C.2       2 RES2   0.0000
   279 C7       8.1071  15.9531   8.7737   C.2       2 RES2   0.0000
   280 H7       7.7795  16.1781   9.6154   H         2 RES2   0.0000
   281 C8       4.7737  10.6414  10.6101   C.2       2 RES2   0.0000
   282 H8       5.2783  10.4124  11.3557   H         2 RES2   0.0000
   283 C9       4.0219  11.7523   8.9755   C.2       2 RES2   0.0000
   284 C10      3.7265  12.6861   7.9351   C.2       2 RES2   0.0000
   285 H10      4.1943  13.4844   7.8673   H         2 RES2   0.0000
   286 C11      4.0219  14.8183  11.9799   C.2       2 RES2   0.0000
   287 C12      3.8058  13.7472  12.9225   C.2       2 RES2   0.0000
   288 H12      4.2840  12.9508  12.8752   H         2 RES2   0.0000
   289 C13      2.7460  12.3814   7.0476   C.2       2 RES2   0.0000
   290 H13      2.5414  12.9946   6.3793   H         2 RES2   0.0000
   291 C14      2.8449  13.9702  13.9108   C.2       2 RES2   0.0000
   292 H14      2.6610  13.3052  14.5335   H         2 RES2   0.0000
   293 N1       7.3140  13.1181  11.9279   N.2       2 RES2   0.0000
   294 N2       4.9105  14.8920  10.8891   N.2       2 RES2   0.0000
   295 N3       7.1197  13.6337   8.6933   N.2       2 RES2   0.0000
   296 N4       4.9438  11.7921   9.9922   N.2       2 RES2   0.0000
   297 Zn1      6.1031  13.3769  10.3784   Zn        2 RES2   0.0000
   298 C1       3.1265  19.9953   8.0334   C.2       2 RES2   0.0000
   299 H1       2.2012  19.9336   7.9656   H         2 RES2   0.0000
   300 C2       5.1265  19.8480   8.8231   C.2       2 RES2   0.0000
   301 C3       6.2725  19.6071   9.5450   C.2       2 RES2   0.0000
   302 H3       6.2450  19.1890  10.3742   H         2 RES2   0.0000
   303 C4       7.4565  20.0172   8.9902   C.2       2 RES2   0.0000
   304 H4       8.2473  19.8779   9.4583   H         2 RES2   0.0000
   305 C5       7.5105  20.6444   7.7181   C.2       2 RES2   0.0000
   306 H5       8.3335  20.9111   7.3745   H         2 RES2   0.0000
   307 C6       2.6725  20.7937  12.8143   C.2       2 RES2   0.0000
   308 C7       1.7322  21.6338  12.2436   C.2       2 RES2   0.0000
   309 H7       1.3736  21.4626  11.4019   H         2 RES2   0.0000
   310 C8       4.6656  16.0912  10.4073   C.2       2 RES2   0.0000
   311 H8       5.1162  16.4137   9.6617   H         2 RES2   0.0000
   312 C9       3.3277  15.9956  12.0419   C.2       2 RES2   0.0000
   313 C10      2.3713  16.2066  13.0822   C.2       2 RES2   0.0000
   314 H10      1.9138  17.0110  13.1500   H         2 RES2   0.0000
   315 C11      0.6724  17.5286   9.0375   C.2       2 RES2   0.0000
   316 C12      1.4920  16.8059   8.0948   C.2       2 RES2   0.0000
   317 H12      2.4207  16.8218   8.1421   H         2 RES2   0.0000
   318 C13      2.1449  15.2052  13.9697   C.2       2 RES2   0.0000
   319 H13      1.5115  15.3346  14.6380   H         2 RES2   0.0000
   320 C14      0.8184  16.0852   7.1065   C.2       2 RES2   0.0000
   321 H14      1.3023  15.5934   6.4838   H         2 RES2   0.0000
   322 N1       3.7909  19.5295   9.0895   N.2       2 RES2   0.0000
   323 N2       1.0529  18.3349  10.1283   N.2       2 RES2   0.0000
   324 N3       3.2472  19.6190  12.3240   N.2       2 RES2   0.0000
   325 N4       3.7541  16.8139  11.0252   N.2       2 RES2   0.0000
   326 Zn1      2.9613  18.6103  10.6390   Zn        2 RES2   0.0000
   327 C1      -7.3852  12.6190   8.0334   C.2       2 RES2   0.0000
   328 H1      -6.8691  11.8485   7.9656   H         2 RES2   0.0000
   329 C2      -8.2576  14.4248   8.8231   C.2       2 RES2   0.0000
   330 C3      -8.6220  15.5377   9.5450   C.2       2 RES2   0.0000
   331 H3      -8.2462  15.7228  10.3742   H         2 RES2   0.0000
   332 C4      -9.5692  16.3579   8.9902   C.2       2 RES2   0.0000
   333 H4      -9.8439  17.1125   9.4583   H         2 RES2   0.0000
   334 C5     -10.1393  16.0912   7.7181   C.2       2 RES2   0.0000
   335 H5     -10.7818  16.6705   7.3745   H         2 RES2   0.0000
   336 C6      -7.8496  11.8266  12.8143   C.2       2 RES2   0.0000
   337 C7      -8.1071  10.5923  12.2436   C.2       2 RES2   0.0000
   338 H7      -7.7795  10.3673  11.4019   H         2 RES2   0.0000
   339 C8      -4.7737  15.9040  10.4073   C.2       2 RES2   0.0000
   340 H8      -5.2783  16.1330   9.6617   H         2 RES2   0.0000
   341 C9      -4.0219  14.7931  12.0419   C.2       2 RES2   0.0000
   342 C10     -3.7265  13.8594  13.0822   C.2       2 RES2   0.0000
   343 H10     -4.1943  13.0610  13.1500   H         2 RES2   0.0000
   344 C11     -4.0219  11.7271   9.0375   C.2       2 RES2   0.0000
   345 C12     -3.8058  12.7982   8.0948   C.2       2 RES2   0.0000
   346 H12     -4.2840  13.5946   8.1421   H         2 RES2   0.0000
   347 C13     -2.7460  14.1640  13.9697   C.2       2 RES2   0.0000
   348 H13     -2.5414  13.5508  14.6380   H         2 RES2   0.0000
   349 C14     -2.8449  12.5752   7.1065   C.2       2 RES2   0.0000
   350 H14     -2.6610  13.2402   6.4838   H         2 RES2   0.0000
   351 N1      -7.3140  13.4273   9.0895   N.2       2 RES2   0.0000
   352 N2      -4.9105  11.6534  10.1283   N.2       2 RES2   0.0000
   353 N3      -7.1197  12.9117  12.3240   N.2       2 RES2   0.0000
   354 N4      -4.9438  14.7533  11.0252   N.2       2 RES2   0.0000
   355 Zn1     -6.1031  13.1685  10.6390   Zn        2 RES2   0.0000
   356 C1      -4.2587  19.3416  12.9840   C.2       2 RES2   0.0000
   357 H1      -4.6679  18.5095  13.0518   H         2 RES2   0.0000
   358 C2      -3.1311  21.0001  12.1943   C.2       2 RES2   0.0000
   359 C3      -2.3495  21.8721  11.4723   C.2       2 RES2   0.0000
   360 H3      -2.0012  21.6392  10.6432   H         2 RES2   0.0000
   361 C4      -2.1127  23.1025  12.0272   C.2       2 RES2   0.0000
   362 H4      -1.5966  23.7177  11.5590   H         2 RES2   0.0000
   363 C5      -2.6288  23.4628  13.2992   C.2       2 RES2   0.0000
   364 H5      -2.4483  24.3090  13.6429   H         2 RES2   0.0000
   365 C6      -5.1771  19.3476   8.2031   C.2       2 RES2   0.0000
   366 C7      -6.3748  18.9534   8.7737   C.2       2 RES2   0.0000
   367 H7      -6.4059  18.5572   9.6154   H         2 RES2   0.0000
   368 C8      -0.1080  18.7225  10.6101   C.2       2 RES2   0.0000
   369 H8      -0.1621  19.2740  11.3557   H         2 RES2   0.0000
   370 C9      -0.6943  17.5160   8.9755   C.2       2 RES2   0.0000
   371 C10     -1.3552  16.7933   7.9351   C.2       2 RES2   0.0000
   372 H10     -2.2805  16.7993   7.8673   H         2 RES2   0.0000
   373 C11     -3.3495  15.9830  11.9799   C.2       2 RES2   0.0000
   374 C12     -2.3138  16.3314  12.9225   C.2       2 RES2   0.0000
   375 H12     -1.8633  17.1437  12.8752   H         2 RES2   0.0000
   376 C13     -0.6012  16.0965   7.0476   C.2       2 RES2   0.0000
   377 H13     -1.0299  15.6127   6.3793   H         2 RES2   0.0000
   378 C14     -2.0265  15.3877  13.9108   C.2       2 RES2   0.0000
   379 H14     -1.3586  15.5609  14.5335   H         2 RES2   0.0000
   380 N1      -3.5231  19.6841  11.9279   N.2       2 RES2   0.0000
   381 N2      -3.8576  16.7156  10.8891   N.2       2 RES2   0.0000
   382 N3      -3.8725  19.2580   8.6933   N.2       2 RES2   0.0000
   383 N4      -1.1897  18.2944   9.9922   N.2       2 RES2   0.0000
   384 Zn1     -3.1418  18.5061  10.3784   Zn        2 RES2   0.0000
   385 C1      -7.2358  13.8401  13.2877   C.2       2 RES2   0.0000
   386 C1       3.1265   6.7226  13.2877   C.2       2 RES2   0.0000
   387 C1       4.1093  19.2554  13.2877   C.2       2 RES2   0.0000
   388 C1       7.2358  12.7053   7.7296   C.2       2 RES2   0.0000
   389 C1      -3.1265  19.8228   7.7296   C.2       2 RES2   0.0000
   390 C1      -4.1093   7.2900   7.7296   C.2       2 RES2   0.0000
   391 C2      -8.3634  12.1817  14.0774   C.2       2 RES2   0.0000
   392 C2       5.1265   6.5753  14.0774   C.2       2 RES2   0.0000
   393 C2       3.2369  21.0611  14.0774   C.2       2 RES2   0.0000
   394 C2       8.3634  14.3637   6.9399   C.2       2 RES2   0.0000
   395 C2      -5.1265  19.9701   6.9399   C.2       2 RES2   0.0000
   396 C2      -3.2369   5.4843   6.9399   C.2       2 RES2   0.0000
   397 C5      -8.8657   9.7189  12.9724   C.2       2 RES2   0.0000
   398 C5       7.5105   7.3717  12.9724   C.2       2 RES2   0.0000
   399 C5       1.3552  22.7275  12.9724   C.2       2 RES2   0.0000
   400 C5       8.8657  16.8265   8.0449   C.2       2 RES2   0.0000
   401 C5      -7.5105  19.1738   8.0449   C.2       2 RES2   0.0000
   402 C5      -1.3552   3.8179   8.0449   C.2       2 RES2   0.0000
   403 C6       5.1771  20.4705   7.5599   C.2       2 RES2   0.0000
   404 C6      -8.8220  14.1573   7.5599   C.2       2 RES2   0.0000
   405 C6       3.6449   5.1903   7.5599   C.2       2 RES2   0.0000
   406 C6      -5.1771   6.0749  13.4574   C.2       2 RES2   0.0000
   407 C6       8.8220  12.3881  13.4574   C.2       2 RES2   0.0000
   408 C6      -3.6449  21.3551  13.4574   C.2       2 RES2   0.0000
   409 C7       6.3748  20.8647   6.9893   C.2       2 RES2   0.0000
   410 C7      -9.7623  14.9975   6.9893   C.2       2 RES2   0.0000
   411 C7       3.3874   3.9559   6.9893   C.2       2 RES2   0.0000
   412 C7      -6.3748   5.6807  14.0280   C.2       2 RES2   0.0000
   413 C7       9.7623  11.5479  14.0280   C.2       2 RES2   0.0000
   414 C7      -3.3874  22.5895  14.0280   C.2       2 RES2   0.0000
   415 N3       3.8725  20.5601   7.0697   N.2       2 RES2   0.0000
   416 N3      -8.2473  12.9827   7.0697   N.2       2 RES2   0.0000
   417 N3       4.3748   6.2753   7.0697   N.2       2 RES2   0.0000
   418 N3      -3.8725   5.9853  13.9476   N.2       2 RES2   0.0000
   419 N3       8.2473  13.5627  13.9476   N.2       2 RES2   0.0000
   420 N3      -4.3748  20.2701  13.9476   N.2       2 RES2   0.0000
   421 C1       4.2587  -6.0689  -2.4753   C.2       3 RES3   0.0000
   422 H1       4.6679  -5.2367  -2.5431   H         3 RES3   0.0000
   423 C2       3.1311  -7.7274  -1.6856   C.2       3 RES3   0.0000
   424 C3       2.3495  -8.5994  -0.9636   C.2       3 RES3   0.0000
   425 H3       2.0012  -8.3664  -0.1345   H         3 RES3   0.0000
   426 C4       2.1127  -9.8298  -1.5185   C.2       3 RES3   0.0000
   427 H4       1.5966 -10.4450  -1.0503   H         3 RES3   0.0000
   428 C5       2.6288 -10.1901  -2.7906   C.2       3 RES3   0.0000
   429 H5       2.4483 -11.0363  -3.1342   H         3 RES3   0.0000
   430 C6       5.1771  -6.0749   2.3056   C.2       3 RES3   0.0000
   431 C7       6.3748  -5.6807   1.7350   C.2       3 RES3   0.0000
   432 H7       6.4059  -5.2845   0.8932   H         3 RES3   0.0000
   433 C8       0.1080  -5.4498  -0.1014   C.2       3 RES3   0.0000
   434 H8       0.1621  -6.0013  -0.8470   H         3 RES3   0.0000
   435 C9       0.6943  -4.2433   1.5332   C.2       3 RES3   0.0000
   436 C10      1.3552  -3.5206   2.5736   C.2       3 RES3   0.0000
   437 H10      2.2805  -3.5266   2.6414   H         3 RES3   0.0000
   438 C11      3.3495  -2.7103  -1.4712   C.2       3 RES3   0.0000
   439 C12      2.3138  -3.0587  -2.4138   C.2       3 RES3   0.0000
   440 H12      1.8633  -3.8710  -2.3666   H         3 RES3   0.0000
   441 C13      0.6012  -2.8238   3.4610   C.2       3 RES3   0.0000
   442 H13      1.0299  -2.3400   4.1294   H         3 RES3   0.0000
   443 C14      2.0265  -2.1150  -3.4022   C.2       3 RES3   0.0000
   444 H14      1.3586  -2.2882  -4.0248   H         3 RES3   0.0000
   445 N1       3.5231  -6.4114  -1.4192   N.2       3 RES3   0.0000
   446 N2       3.8576  -3.4429  -0.3804   N.2       3 RES3   0.0000
   447 N3       3.8725  -5.9853   1.8154   N.2       3 RES3   0.0000
   448 N4       1.1897  -5.0217   0.5165   N.2       3 RES3   0.0000
   449 Zn1      3.1418  -5.2334   0.1303   Zn        3 RES3   0.0000
   450 C1      -3.1265  -6.7226   2.4753   C.2       3 RES3   0.0000
   451 H1      -2.2012  -6.6609   2.5431   H         3 RES3   0.0000
   452 C2      -5.1265  -6.5753   1.6856   C.2       3 RES3   0.0000
   453 C3      -6.2725  -6.3344   0.9636   C.2       3 RES3   0.0000
   454 H3      -6.2450  -5.9163   0.1345   H         3 RES3   0.0000
   455 C4      -7.4565  -6.7445   1.5185   C.2       3 RES3   0.0000
   456 H4      -8.2473  -6.6052   1.0503   H         3 RES3   0.0000
   457 C5      -7.5105  -7.3717   2.7906   C.2       3 RES3   0.0000
   458 H5      -8.3335  -7.6384   3.1342   H         3 RES3   0.0000
   459 C6      -2.6725  -7.5210  -2.3056   C.2       3 RES3   0.0000
   460 C7      -1.7322  -8.3611  -1.7350   C.2       3 RES3   0.0000
   461 H7      -1.3736  -8.1899  -0.8932   H         3 RES3   0.0000
   462 C8      -4.6656  -2.8185   0.1014   C.2       3 RES3   0.0000
   463 H8      -5.1162  -3.1410   0.8470   H         3 RES3   0.0000
   464 C9      -3.3277  -2.7229  -1.5332   C.2       3 RES3   0.0000
   465 C10     -2.3713  -2.9339  -2.5736   C.2       3 RES3   0.0000
   466 H10     -1.9138  -3.7383  -2.6414   H         3 RES3   0.0000
   467 C11     -0.6724  -4.2559   1.4712   C.2       3 RES3   0.0000
   468 C12     -1.4920  -3.5332   2.4138   C.2       3 RES3   0.0000
   469 H12     -2.4207  -3.5491   2.3666   H         3 RES3   0.0000
   470 C13     -2.1449  -1.9325  -3.4610   C.2       3 RES3   0.0000
   471 H13     -1.5115  -2.0619  -4.1294   H         3 RES3   0.0000
   472 C14     -0.8184  -2.8125   3.4022   C.2       3 RES3   0.0000
   473 H14     -1.3023  -2.3207   4.0248   H         3 RES3   0.0000
   474 N1      -3.7909  -6.2568   1.4192   N.2       3 RES3   0.0000
   475 N2      -1.0529  -5.0622   0.3804   N.2       3 RES3   0.0000
   476 N3      -3.2472  -6.3463  -1.8154   N.2       3 RES3   0.0000
   477 N4      -3.7541  -3.5412  -0.5165   N.2       3 RES3   0.0000
   478 Zn1     -2.9613  -5.3376  -0.1303   Zn        3 RES3   0.0000
   479 C1       7.3852   0.6537   2.4753   C.2       3 RES3   0.0000
   480 H1       6.8691   1.4242   2.5431   H         3 RES3   0.0000
   481 C2       8.2576  -1.1521   1.6856   C.2       3 RES3   0.0000
   482 C3       8.6220  -2.2650   0.9636   C.2       3 RES3   0.0000
   483 H3       8.2462  -2.4501   0.1345   H         3 RES3   0.0000
   484 C4       9.5692  -3.0852   1.5185   C.2       3 RES3   0.0000
   485 H4       9.8439  -3.8398   1.0503   H         3 RES3   0.0000
   486 C5      10.1393  -2.8185   2.7906   C.2       3 RES3   0.0000
   487 H5      10.7818  -3.3978   3.1342   H         3 RES3   0.0000
   488 C6       7.8496   1.4461  -2.3056   C.2       3 RES3   0.0000
   489 C7       8.1071   2.6804  -1.7350   C.2       3 RES3   0.0000
   490 H7       7.7795   2.9054  -0.8932   H         3 RES3   0.0000
   491 C8       4.7737  -2.6313   0.1014   C.2       3 RES3   0.0000
   492 H8       5.2783  -2.8603   0.8470   H         3 RES3   0.0000
   493 C9       4.0219  -1.5204  -1.5332   C.2       3 RES3   0.0000
   494 C10      3.7265  -0.5867  -2.5736   C.2       3 RES3   0.0000
   495 H10      4.1943   0.2117  -2.6414   H         3 RES3   0.0000
   496 C11      4.0219   1.5456   1.4712   C.2       3 RES3   0.0000
   497 C12      3.8058   0.4745   2.4138   C.2       3 RES3   0.0000
   498 H12      4.2840  -0.3219   2.3666   H         3 RES3   0.0000
   499 C13      2.7460  -0.8913  -3.4610   C.2       3 RES3   0.0000
   500 H13      2.5414  -0.2781  -4.1294   H         3 RES3   0.0000
   501 C14      2.8449   0.6975   3.4022   C.2       3 RES3   0.0000
   502 H14      2.6610   0.0325   4.0248   H         3 RES3   0.0000
   503 N1       7.3140  -0.1546   1.4192   N.2       3 RES3   0.0000
   504 N2       4.9105   1.6193   0.3804   N.2       3 RES3   0.0000
   505 N3       7.1197   0.3610  -1.8154   N.2       3 RES3   0.0000
   506 N4       4.9438  -1.4806  -0.5165   N.2       3 RES3   0.0000
   507 Zn1      6.1031   0.1042  -0.1303   Zn        3 RES3   0.0000
   508 C1       3.1265   6.7226  -2.4753   C.2       3 RES3   0.0000
   509 H1       2.2012   6.6609  -2.5431   H         3 RES3   0.0000
   510 C2       5.1265   6.5753  -1.6856   C.2       3 RES3   0.0000
   511 C3       6.2725   6.3344  -0.9636   C.2       3 RES3   0.0000
   512 H3       6.2450   5.9163  -0.1345   H         3 RES3   0.0000
   513 C4       7.4565   6.7445  -1.5185   C.2       3 RES3   0.0000
   514 H4       8.2473   6.6052  -1.0503   H         3 RES3   0.0000
   515 C5       7.5105   7.3717  -2.7906   C.2       3 RES3   0.0000
   516 H5       8.3335   7.6384  -3.1342   H         3 RES3   0.0000
   517 C6       2.6725   7.5210   2.3056   C.2       3 RES3   0.0000
   518 C7       1.7322   8.3611   1.7350   C.2       3 RES3   0.0000
   519 H7       1.3736   8.1899   0.8932   H         3 RES3   0.0000
   520 C8       4.6656   2.8185  -0.1014   C.2       3 RES3   0.0000
   521 H8       5.1162   3.1410  -0.8470   H         3 RES3   0.0000
   522 C9       3.3277   2.7229   1.5332   C.2       3 RES3   0.0000
   523 C10      2.3713   2.9339   2.5736   C.2       3 RES3   0.0000
   524 H10      1.9138   3.7383   2.6414   H         3 RES3   0.0000
   525 C11      0.6724   4.2559  -1.4712   C.2       3 RES3   0.0000
   526 C12      1.4920   3.5332  -2.4138   C.2       3 RES3   0.0000
   527 H12      2.4207   3.5491  -2.3666   H         3 RES3   0.0000
   528 C13      2.1449   1.9325   3.4610   C.2       3 RES3   0.0000
   529 H13      1.5115   2.0619   4.1294   H         3 RES3   0.0000
   530 C14      0.8184   2.8125  -3.4022   C.2       3 RES3   0.0000
   531 H14      1.3023   2.3207  -4.0248   H         3 RES3   0.0000
   532 N1       3.7909   6.2568  -1.4192   N.2       3 RES3   0.0000
   533 N2       1.0529   5.0622  -0.3804   N.2       3 RES3   0.0000
   534 N3       3.2472   6.3463   1.8154   N.2       3 RES3   0.0000
   535 N4       3.7541   3.5412   0.5165   N.2       3 RES3   0.0000
   536 Zn1      2.9613   5.3376   0.1303   Zn        3 RES3   0.0000
   537 C1      -7.3852  -0.6537  -2.4753   C.2       3 RES3   0.0000
   538 H1      -6.8691  -1.4242  -2.5431   H         3 RES3   0.0000
   539 C2      -8.2576   1.1521  -1.6856   C.2       3 RES3   0.0000
   540 C3      -8.6220   2.2650  -0.9636   C.2       3 RES3   0.0000
   541 H3      -8.2462   2.4501  -0.1345   H         3 RES3   0.0000
   542 C4      -9.5692   3.0852  -1.5185   C.2       3 RES3   0.0000
   543 H4      -9.8439   3.8398  -1.0503   H         3 RES3   0.0000
   544 C5     -10.1393   2.8185  -2.7906   C.2       3 RES3   0.0000
   545 H5     -10.7818   3.3978  -3.1342   H         3 RES3   0.0000
   546 C6      -7.8496  -1.4461   2.3056   C.2       3 RES3   0.0000
   547 C7      -8.1071  -2.6804   1.7350   C.2       3 RES3   0.0000
   548 H7      -7.7795  -2.9054   0.8932   H         3 RES3   0.0000
   549 C8      -4.7737   2.6313  -0.1014   C.2       3 RES3   0.0000
   550 H8      -5.2783   2.8603  -0.8470   H         3 RES3   0.0000
   551 C9      -4.0219   1.5204   1.5332   C.2       3 RES3   0.0000
   552 C10     -3.7265   0.5867   2.5736   C.2       3 RES3   0.0000
   553 H10     -4.1943  -0.2117   2.6414   H         3 RES3   0.0000
   554 C11     -4.0219  -1.5456  -1.4712   C.2       3 RES3   0.0000
   555 C12     -3.8058  -0.4745  -2.4138   C.2       3 RES3   0.0000
   556 H12     -4.2840   0.3219  -2.3666   H         3 RES3   0.0000
   557 C13     -2.7460   0.8913   3.4610   C.2       3 RES3   0.0000
   558 H13     -2.5414   0.2781   4.1294   H         3 RES3   0.0000
   559 C14     -2.8449  -0.6975  -3.4022   C.2       3 RES3   0.0000
   560 H14     -2.6610  -0.0325  -4.0248   H         3 RES3   0.0000
   561 N1      -7.3140   0.1546  -1.4192   N.2       3 RES3   0.0000
   562 N2      -4.9105  -1.6193  -0.3804   N.2       3 RES3   0.0000
   563 N3      -7.1197  -0.3610   1.8154   N.2       3 RES3   0.0000
   564 N4      -4.9438   1.4806   0.5165   N.2       3 RES3   0.0000
   565 Zn1     -6.1031  -0.1042   0.1303   Zn        3 RES3   0.0000
   566 C1      -4.2587   6.0689   2.4753   C.2       3 RES3   0.0000
   567 H1      -4.6679   5.2367   2.5431   H         3 RES3   0.0000
   568 C2      -3.1311   7.7274   1.6856   C.2       3 RES3   0.0000
   569 C3      -2.3495   8.5994   0.9636   C.2       3 RES3   0.0000
   570 H3      -2.0012   8.3664   0.1345   H         3 RES3   0.0000
   571 C4      -2.1127   9.8298   1.5185   C.2       3 RES3   0.0000
   572 H4      -1.5966  10.4450   1.0503   H         3 RES3   0.0000
   573 C5      -2.6288  10.1901   2.7906   C.2       3 RES3   0.0000
   574 H5      -2.4483  11.0363   3.1342   H         3 RES3   0.0000
   575 C6      -5.1771   6.0749  -2.3056   C.2       3 RES3   0.0000
   576 C7      -6.3748   5.6807  -1.7350   C.2       3 RES3   0.0000
   577 H7      -6.4059   5.2845  -0.8932   H         3 RES3   0.0000
   578 C8      -0.1080   5.4498   0.1014   C.2       3 RES3   0.0000
   579 H8      -0.1621   6.0013   0.8470   H         3 RES3   0.0000
   580 C9      -0.6943   4.2433  -1.5332   C.2       3 RES3   0.0000
   581 C10     -1.3552   3.5206  -2.5736   C.2       3 RES3   0.0000
   582 H10     -2.2805   3.5266  -2.6414   H         3 RES3   0.0000
   583 C11     -3.3495   2.7103   1.4712   C.2       3 RES3   0.0000
   584 C12     -2.3138   3.0587   2.4138   C.2       3 RES3   0.0000
   585 H12     -1.8633   3.8710   2.3666   H         3 RES3   0.0000
   586 C13     -0.6012   2.8238  -3.4610   C.2       3 RES3   0.0000
   587 H13     -1.0299   2.3400  -4.1294   H         3 RES3   0.0000
   588 C14     -2.0265   2.1150   3.4022   C.2       3 RES3   0.0000
   589 H14     -1.3586   2.2882   4.0248   H         3 RES3   0.0000
   590 N1      -3.5231   6.4114   1.4192   N.2       3 RES3   0.0000
   591 N2      -3.8576   3.4429   0.3804   N.2       3 RES3   0.0000
   592 N3      -3.8725   5.9853  -1.8154   N.2       3 RES3   0.0000
   593 N4      -1.1897   5.0217  -0.5165   N.2       3 RES3   0.0000
   594 Zn1     -3.1418   5.2334  -0.1303   Zn        3 RES3   0.0000
   595 C1      -7.2358   0.5674   2.7790   C.2       3 RES3   0.0000
   596 C1       3.1265  -6.5501   2.7790   C.2       3 RES3   0.0000
   597 C1       4.1093   5.9827   2.7790   C.2       3 RES3   0.0000
   598 C1       7.2358  -0.5674  -2.7790   C.2       3 RES3   0.0000
   599 C1      -3.1265   6.5501  -2.7790   C.2       3 RES3   0.0000
   600 C1      -4.1093  -5.9827  -2.7790   C.2       3 RES3   0.0000
   601 C2      -8.3634  -1.0910   3.5687   C.2       3 RES3   0.0000
   602 C2       5.1265  -6.6974   3.5687   C.2       3 RES3   0.0000
   603 C2       3.2369   7.7884   3.5687   C.2       3 RES3   0.0000
   604 C2       8.3634   1.0910  -3.5687   C.2       3 RES3   0.0000
   605 C2      -5.1265   6.6974  -3.5687   C.2       3 RES3   0.0000
   606 C2      -3.2369  -7.7884  -3.5687   C.2       3 RES3   0.0000
   607 C5      -8.8657  -3.5538   2.4638   C.2       3 RES3   0.0000
   608 C5       7.5105  -5.9010   2.4638   C.2       3 RES3   0.0000
   609 C5       1.3552   9.4548   2.4638   C.2       3 RES3   0.0000
   610 C5       8.8657   3.5538  -2.4638   C.2       3 RES3   0.0000
   611 C5      -7.5105   5.9010  -2.4638   C.2       3 RES3   0.0000
   612 C5      -1.3552  -9.4548  -2.4638   C.2       3 RES3   0.0000
   613 C6       5.1771   7.1978  -2.9487   C.2       3 RES3   0.0000
   614 C6      -8.8220   0.8846  -2.9487   C.2       3 RES3   0.0000
   615 C6       3.6449  -8.0824  -2.9487   C.2       3 RES3   0.0000
   616 C6      -5.1771  -7.1978   2.9487   C.2       3 RES3   0.0000
   617 C6       8.8220  -0.8846   2.9487   C.2       3 RES3   0.0000
   618 C6      -3.6449   8.0824   2.9487   C.2       3 RES3   0.0000
   619 C7       6.3748   7.5920  -3.5194   C.2       3 RES3   0.0000
   620 C7      -9.7623   1.7248  -3.5194   C.2       3 RES3   0.0000
   621 C7       3.3874  -9.3168  -3.5194   C.2       3 RES3   0.0000
   622 C7      -6.3748  -7.5920   3.5194   C.2       3 RES3   0.0000
   623 C7       9.7623  -1.7248   3.5194   C.2       3 RES3   0.0000
   624 C7      -3.3874   9.3168   3.5194   C.2       3 RES3   0.0000
   625 N3       3.8725   7.2874  -3.4390   N.2       3 RES3   0.0000
   626 N3      -8.2473  -0.2900  -3.4390   N.2       3 RES3   0.0000
   627 N3       4.3748  -6.9974  -3.4390   N.2       3 RES3   0.0000
   628 N3      -3.8725  -7.2874   3.4390   N.2       3 RES3   0.0000
   629 N3       8.2473   0.2900   3.4390   N.2       3 RES3   0.0000
   630 N3      -4.3748   6.9974   3.4390   N.2       3 RES3   0.0000
   631 C1       4.2587  -6.0689  13.2877   C.2       4 RES4   0.0000
   632 H1       4.6679  -5.2367  13.2199   H         4 RES4   0.0000
   633 C2       3.1311  -7.7274  14.0774   C.2       4 RES4   0.0000
   634 C3       2.3495  -8.5994  14.7994   C.2       4 RES4   0.0000
   635 H3       2.0012  -8.3664  15.6285   H         4 RES4   0.0000
   636 C4       2.1127  -9.8298  14.2445   C.2       4 RES4   0.0000
   637 H4       1.5966 -10.4450  14.7127   H         4 RES4   0.0000
   638 C5       2.6288 -10.1901  12.9724   C.2       4 RES4   0.0000
   639 H5       2.4483 -11.0363  12.6288   H         4 RES4   0.0000
   640 C6       5.1771  -6.0749  18.0686   C.2       4 RES4   0.0000
   641 C7       6.3748  -5.6807  17.4980   C.2       4 RES4   0.0000
   642 H7       6.4059  -5.2845  16.6562   H         4 RES4   0.0000
   643 C8       0.1080  -5.4498  15.6616   C.2       4 RES4   0.0000
   644 H8       0.1621  -6.0013  14.9160   H         4 RES4   0.0000
   645 C9       0.6943  -4.2433  17.2962   C.2       4 RES4   0.0000
   646 C10      1.3552  -3.5206  18.3366   C.2       4 RES4   0.0000
   647 H10      2.2805  -3.5266  18.4044   H         4 RES4   0.0000
   648 C11      3.3495  -2.7103  14.2918   C.2       4 RES4   0.0000
   649 C12      2.3138  -3.0587  13.3492   C.2       4 RES4   0.0000
   650 H12      1.8633  -3.8710  13.3964   H         4 RES4   0.0000
   651 C13      0.6012  -2.8238  19.2240   C.2       4 RES4   0.0000
   652 H13      1.0299  -2.3400  19.8924   H         4 RES4   0.0000
   653 C14      2.0265  -2.1150  12.3608   C.2       4 RES4   0.0000
   654 H14      1.3586  -2.2882  11.7382   H         4 RES4   0.0000
   655 N1       3.5231  -6.4114  14.3438   N.2       4 RES4   0.0000
   656 N2       3.8576  -3.4429  15.3826   N.2       4 RES4   0.0000
   657 N3       3.8725  -5.9853  17.5784   N.2       4 RES4   0.0000
   658 N4       1.1897  -5.0217  16.2795   N.2       4 RES4   0.0000
   659 Zn1      3.1418  -5.2334  15.8933   Zn        4 RES4   0.0000
   660 C1      -3.1265  -6.7226  18.2383   C.2       4 RES4   0.0000
   661 H1      -2.2012  -6.6609  18.3061   H         4 RES4   0.0000
   662 C2      -5.1265  -6.5753  17.4486   C.2       4 RES4   0.0000
   663 C3      -6.2725  -6.3344  16.7266   C.2       4 RES4   0.0000
   664 H3      -6.2450  -5.9163  15.8975   H         4 RES4   0.0000
   665 C4      -7.4565  -6.7445  17.2815   C.2       4 RES4   0.0000
   666 H4      -8.2473  -6.6052  16.8133   H         4 RES4   0.0000
   667 C5      -7.5105  -7.3717  18.5536   C.2       4 RES4   0.0000
   668 H5      -8.3335  -7.6384  18.8972   H         4 RES4   0.0000
   669 C6      -2.6725  -7.5210  13.4574   C.2       4 RES4   0.0000
   670 C7      -1.7322  -8.3611  14.0280   C.2       4 RES4   0.0000
   671 H7      -1.3736  -8.1899  14.8698   H         4 RES4   0.0000
   672 C8      -4.6656  -2.8185  15.8644   C.2       4 RES4   0.0000
   673 H8      -5.1162  -3.1410  16.6100   H         4 RES4   0.0000
   674 C9      -3.3277  -2.7229  14.2298   C.2       4 RES4   0.0000
   675 C10     -2.3713  -2.9339  13.1894   C.2       4 RES4   0.0000
   676 H10     -1.9138  -3.7383  13.1216   H         4 RES4   0.0000
   677 C11     -0.6724  -4.2559  17.2342   C.2       4 RES4   0.0000
   678 C12     -1.4920  -3.5332  18.1768   C.2       4 RES4   0.0000
   679 H12     -2.4207  -3.5491  18.1296   H         4 RES4   0.0000
   680 C13     -2.1449  -1.9325  12.3020   C.2       4 RES4   0.0000
   681 H13     -1.5115  -2.0619  11.6336   H         4 RES4   0.0000
   682 C14     -0.8184  -2.8125  19.1652   C.2       4 RES4   0.0000
   683 H14     -1.3023  -2.3207  19.7878   H         4 RES4   0.0000
   684 N1      -3.7909  -6.2568  17.1822   N.2       4 RES4   0.0000
   685 N2      -1.0529  -5.0622  16.1434   N.2       4 RES4   0.0000
   686 N3      -3.2472  -6.3463  13.9476   N.2       4 RES4   0.0000
   687 N4      -3.7541  -3.5412  15.2465   N.2       4 RES4   0.0000
   688 Zn1     -2.9613  -5.3376  15.6327   Zn        4 RES4   0.0000
   689 C1       7.3852   0.6537  18.2383   C.2       4 RES4   0.0000
   690 H1       6.8691   1.4242  18.3061   H         4 RES4   0.0000
   691 C2       8.2576  -1.1521  17.4486   C.2       4 RES4   0.0000
   692 C3       8.6220  -2.2650  16.7266   C.2       4 RES4   0.0000
   693 H3       8.2462  -2.4501  15.8975   H         4 RES4   0.0000
   694 C4       9.5692  -3.0852  17.2815   C.2       4 RES4   0.0000
   695 H4       9.8439  -3.8398  16.8133   H         4 RES4   0.0000
   696 C5      10.1393  -2.8185  18.5536   C.2       4 RES4   0.0000
   697 H5      10.7818  -3.3978  18.8972   H         4 RES4   0.0000
   698 C6       7.8496   1.4461  13.4574   C.2       4 RES4   0.0000
   699 C7       8.1071   2.6804  14.0280   C.2       4 RES4   0.0000
   700 H7       7.7795   2.9054  14.8698   H         4 RES4   0.0000
   701 C8       4.7737  -2.6313  15.8644   C.2       4 RES4   0.0000
   702 H8       5.2783  -2.8603  16.6100   H         4 RES4   0.0000
   703 C9       4.0219  -1.5204  14.2298   C.2       4 RES4   0.0000
   704 C10      3.7265  -0.5867  13.1894   C.2       4 RES4   0.0000
   705 H10      4.1943   0.2117  13.1216   H         4 RES4   0.0000
   706 C11      4.0219   1.5456  17.2342   C.2       4 RES4   0.0000
   707 C12      3.8058   0.4745  18.1768   C.2       4 RES4   0.0000
   708 H12      4.2840  -0.3219  18.1296   H         4 RES4   0.0000
   709 C13      2.7460  -0.8913  12.3020   C.2       4 RES4   0.0000
   710 H13      2.5414  -0.2781  11.6336   H         4 RES4   0.0000
   711 C14      2.8449   0.6975  19.1652   C.2       4 RES4   0.0000
   712 H14      2.6610   0.0325  19.7878   H         4 RES4   0.0000
   713 N1       7.3140  -0.1546  17.1822   N.2       4 RES4   0.0000
   714 N2       4.9105   1.6193  16.1434   N.2       4 RES4   0.0000
   715 N3       7.1197   0.3610  13.9476   N.2       4 RES4   0.0000
   716 N4       4.9438  -1.4806  15.2465   N.2       4 RES4   0.0000
   717 Zn1      6.1031   0.1042  15.6327   Zn        4 RES4   0.0000
   718 C1       3.1265   6.7226  13.2877   C.2       4 RES4   0.0000
   719 H1       2.2012   6.6609  13.2199   H         4 RES4   0.0000
   720 C2       5.1265   6.5753  14.0774   C.2       4 RES4   0.0000
   721 C3       6.2725   6.3344  14.7994   C.2       4 RES4   0.0000
   722 H3       6.2450   5.9163  15.6285   H         4 RES4   0.0000
   723 C4       7.4565   6.7445  14.2445   C.2       4 RES4   0.0000
   724 H4       8.2473   6.6052  14.7127   H         4 RES4   0.0000
   725 C5       7.5105   7.3717  12.9724   C.2       4 RES4   0.0000
   726 H5       8.3335   7.6384  12.6288   H         4 RES4   0.0000
   727 C6       2.6725   7.5210  18.0686   C.2       4 RES4   0.0000
   728 C7       1.7322   8.3611  17.4980   C.2       4 RES4   0.0000
   729 H7       1.3736   8.1899  16.6562   H         4 RES4   0.0000
   730 C8       4.6656   2.8185  15.6616   C.2       4 RES4   0.0000
   731 H8       5.1162   3.1410  14.9160   H         4 RES4   0.0000
   732 C9       3.3277   2.7229  17.2962   C.2       4 RES4   0.0000
   733 C10      2.3713   2.9339  18.3366   C.2       4 RES4   0.0000
   734 H10      1.9138   3.7383  18.4044   H         4 RES4   0.0000
   735 C11      0.6724   4.2559  14.2918   C.2       4 RES4   0.0000
   736 C12      1.4920   3.5332  13.3492   C.2       4 RES4   0.0000
   737 H12      2.4207   3.5491  13.3964   H         4 RES4   0.0000
   738 C13      2.1449   1.9325  19.2240   C.2       4 RES4   0.0000
   739 H13      1.5115   2.0619  19.8924   H         4 RES4   0.0000
   740 C14      0.8184   2.8125  12.3608   C.2       4 RES4   0.0000
   741 H14      1.3023   2.3207  11.7382   H         4 RES4   0.0000
   742 N1       3.7909   6.2568  14.3438   N.2       4 RES4   0.0000
   743 N2       1.0529   5.0622  15.3826   N.2       4 RES4   0.0000
   744 N3       3.2472   6.3463  17.5784   N.2       4 RES4   0.0000
   745 N4       3.7541   3.5412  16.2795   N.2       4 RES4   0.0000
   746 Zn1      2.9613   5.3376  15.8933   Zn        4 RES4   0.0000
   747 C1      -7.3852  -0.6537  13.2877   C.2       4 RES4   0.0000
   748 H1      -6.8691  -1.4242  13.2199   H         4 RES4   0.0000
   749 C2      -8.2576   1.1521  14.0774   C.2       4 RES4   0.0000
   750 C3      -8.6220   2.2650  14.7994   C.2       4 RES4   0.0000
   751 H3      -8.2462   2.4501  15.6285   H         4 RES4   0.0000
   752 C4      -9.5692   3.0852  14.2445   C.2       4 RES4   0.0000
   753 H4      -9.8439   3.8398  14.7127   H         4 RES4   0.0000
   754 C5     -10.1393   2.8185  12.9724   C.2       4 RES4   0.0000
   755 H5     -10.7818   3.3978  12.6288   H         4 RES4   0.0000
   756 C6      -7.8496  -1.4461  18.0686   C.2       4 RES4   0.0000
   757 C7      -8.1071  -2.6804  17.4980   C.2       4 RES4   0.0000
   758 H7      -7.7795  -2.9054  16.6562   H         4 RES4   0.0000
   759 C8      -4.7737   2.6313  15.6616   C.2       4 RES4   0.0000
   760 H8      -5.2783   2.8603  14.9160   H         4 RES4   0.0000
   761 C9      -4.0219   1.5204  17.2962   C.2       4 RES4   0.0000
   762 C10     -3.7265   0.5867  18.3366   C.2       4 RES4   0.0000
   763 H10     -4.1943  -0.2117  18.4044   H         4 RES4   0.0000
   764 C11     -4.0219  -1.5456  14.2918   C.2       4 RES4   0.0000
   765 C12     -3.8058  -0.4745  13.3492   C.2       4 RES4   0.0000
   766 H12     -4.2840   0.3219  13.3964   H         4 RES4   0.0000
   767 C13     -2.7460   0.8913  19.2240   C.2       4 RES4   0.0000
   768 H13     -2.5414   0.2781  19.8924   H         4 RES4   0.0000
   769 C14     -2.8449  -0.6975  12.3608   C.2       4 RES4   0.0000
   770 H14     -2.6610  -0.0325  11.7382   H         4 RES4   0.0000
   771 N1      -7.3140   0.1546  14.3438   N.2       4 RES4   0.0000
   772 N2      -4.9105  -1.6193  15.3826   N.2       4 RES4   0.0000
   773 N3      -7.1197  -0.3610  17.5784   N.2       4 RES4   0.0000
   774 N4      -4.9438   1.4806  16.2795   N.2       4 RES4   0.0000
   775 Zn1     -6.1031  -0.1042  15.8933   Zn        4 RES4   0.0000
   776 C1      -4.2587   6.0689  18.2383   C.2       4 RES4   0.0000
   777 H1      -4.6679   5.2367  18.3061   H         4 RES4   0.0000
   778 C2      -3.1311   7.7274  17.4486   C.2       4 RES4   0.0000
   779 C3      -2.3495   8.5994  16.7266   C.2       4 RES4   0.0000
   780 H3      -2.0012   8.3664  15.8975   H         4 RES4   0.0000
   781 C4      -2.1127   9.8298  17.2815   C.2       4 RES4   0.0000
   782 H4      -1.5966  10.4450  16.8133   H         4 RES4   0.0000
   783 C5      -2.6288  10.1901  18.5536   C.2       4 RES4   0.0000
   784 H5      -2.4483  11.0363  18.8972   H         4 RES4   0.0000
   785 C6      -5.1771   6.0749  13.4574   C.2       4 RES4   0.0000
   786 C7      -6.3748   5.6807  14.0280   C.2       4 RES4   0.0000
   787 H7      -6.4059   5.2845  14.8698   H         4 RES4   0.0000
   788 C8      -0.1080   5.4498  15.8644   C.2       4 RES4   0.0000
   789 H8      -0.1621   6.0013  16.6100   H         4 RES4   0.0000
   790 C9      -0.6943   4.2433  14.2298   C.2       4 RES4   0.0000
   791 C10     -1.3552   3.5206  13.1894   C.2       4 RES4   0.0000
   792 H10     -2.2805   3.5266  13.1216   H         4 RES4   0.0000
   793 C11     -3.3495   2.7103  17.2342   C.2       4 RES4   0.0000
   794 C12     -2.3138   3.0587  18.1768   C.2       4 RES4   0.0000
   795 H12     -1.8633   3.8710  18.1296   H         4 RES4   0.0000
   796 C13     -0.6012   2.8238  12.3020   C.2       4 RES4   0.0000
   797 H13     -1.0299   2.3400  11.6336   H         4 RES4   0.0000
   798 C14     -2.0265   2.1150  19.1652   C.2       4 RES4   0.0000
   799 H14     -1.3586   2.2882  19.7878   H         4 RES4   0.0000
   800 N1      -3.5231   6.4114  17.1822   N.2       4 RES4   0.0000
   801 N2      -3.8576   3.4429  16.1434   N.2       4 RES4   0.0000
   802 N3      -3.8725   5.9853  13.9476   N.2       4 RES4   0.0000
   803 N4      -1.1897   5.0217  15.2465   N.2       4 RES4   0.0000
   804 Zn1     -3.1418   5.2334  15.6327   Zn        4 RES4   0.0000
   805 C1      -7.2358   0.5674  18.5420   C.2       4 RES4   0.0000
   806 C1       3.1265  -6.5501  18.5420   C.2       4 RES4   0.0000
   807 C1       4.1093   5.9827  18.5420   C.2       4 RES4   0.0000
   808 C1       7.2358  -0.5674  12.9840   C.2       4 RES4   0.0000
   809 C1      -3.1265   6.5501  12.9840   C.2       4 RES4   0.0000
   810 C1      -4.1093  -5.9827  12.9840   C.2       4 RES4   0.0000
   811 C2      -8.3634  -1.0910  19.3317   C.2       4 RES4   0.0000
   812 C2       5.1265  -6.6974  19.3317   C.2       4 RES4   0.0000
   813 C2       3.2369   7.7884  19.3317   C.2       4 RES4   0.0000
   814 C2       8.3634   1.0910  12.1943   C.2       4 RES4   0.0000
   815 C2      -5.1265   6.6974  12.1943   C.2       4 RES4   0.0000
   816 C2      -3.2369  -7.7884  12.1943   C.2       4 RES4   0.0000
   817 C5      -8.8657  -3.5538  18.2268   C.2       4 RES4   0.0000
   818 C5       7.5105  -5.9010  18.2268   C.2       4 RES4   0.0000
   819 C5       1.3552   9.4548  18.2268   C.2       4 RES4   0.0000
   820 C5       8.8657   3.5538  13.2992   C.2       4 RES4   0.0000
   821 C5      -7.5105   5.9010  13.2992   C.2       4 RES4   0.0000
   822 C5      -1.3552  -9.4548  13.2992   C.2       4 RES4   0.0000
   823 C6       5.1771   7.1978  12.8143   C.2       4 RES4   0.0000
   824 C6      -8.8220   0.8846  12.8143   C.2       4 RES4   0.0000
   825 C6       3.6449  -8.0824  12.8143   C.2       4 RES4   0.0000
   826 C6      -5.1771  -7.1978  18.7117   C.2       4 RES4   0.0000
   827 C6       8.8220  -0.8846  18.7117   C.2       4 RES4   0.0000
   828 C6      -3.6449   8.0824  18.7117   C.2       4 RES4   0.0000
   829 C7       6.3748   7.5920  12.2436   C.2       4 RES4   0.0000
   830 C7      -9.7623   1.7248  12.2436   C.2       4 RES4   0.0000
   831 C7       3.3874  -9.3168  12.2436   C.2       4 RES4   0.0000
   832 C7      -6.3748  -7.5920  19.2824   C.2       4 RES4   0.0000
   833 C7       9.7623  -1.7248  19.2824   C.2       4 RES4   0.0000
   834 C7      -3.3874   9.3168  19.2824   C.2       4 RES4   0.0000
   835 N3       3.8725   7.2874  12.3240   N.2       4 RES4   0.0000
   836 N3      -8.2473  -0.2900  12.3240   N.2       4 RES4   0.0000
   837 N3       4.3748  -6.9974  12.3240   N.2       4 RES4   0.0000
   838 N3      -3.8725  -7.2874  19.2020   N.2       4 RES4   0.0000
   839 N3       8.2473   0.2900  19.2020   N.2       4 RES4   0.0000
   840 N3      -4.3748   6.9974  19.2020   N.2       4 RES4   0.0000
   841 C1      -7.2358  13.8401  -2.4753   C.2       5 RES5   0.0000
   842 H1      -6.8266  14.6723  -2.5431   H         5 RES5   0.0000
   843 C2      -8.3634  12.1817  -1.6856   C.2       5 RES5   0.0000
   844 C3      -9.1450  11.3097  -0.9636   C.2       5 RES5   0.0000
   845 H3      -9.4933  11.5426  -0.1345   H         5 RES5   0.0000
   846 C4      -9.3818  10.0793  -1.5185   C.2       5 RES5   0.0000
   847 H4      -9.8979   9.4641  -1.0503   H         5 RES5   0.0000
   848 C5      -8.8657   9.7189  -2.7906   C.2       5 RES5   0.0000
   849 H5      -9.0462   8.8728  -3.1342   H         5 RES5   0.0000
   850 C6      -6.3174  13.8341   2.3056   C.2       5 RES5   0.0000
   851 C7      -5.1197  14.2283   1.7350   C.2       5 RES5   0.0000
   852 H7      -5.0886  14.6245   0.8932   H         5 RES5   0.0000
   853 C8     -11.3865  14.4593  -0.1014   C.2       5 RES5   0.0000
   854 H8     -11.3324  13.9078  -0.8470   H         5 RES5   0.0000
   855 C9     -10.8002  15.6658   1.5332   C.2       5 RES5   0.0000
   856 C10    -10.1393  16.3885   2.5736   C.2       5 RES5   0.0000
   857 H10     -9.2140  16.3825   2.6414   H         5 RES5   0.0000
   858 C11     -8.1450  17.1988  -1.4712   C.2       5 RES5   0.0000
   859 C12     -9.1807  16.8504  -2.4138   C.2       5 RES5   0.0000
   860 H12     -9.6312  16.0381  -2.3666   H         5 RES5   0.0000
   861 C13    -10.8933  17.0853   3.4610   C.2       5 RES5   0.0000
   862 H13    -10.4646  17.5691   4.1294   H         5 RES5   0.0000
   863 C14     -9.4680  17.7941  -3.4022   C.2       5 RES5   0.0000
   864 H14    -10.1359  17.6208  -4.0248   H         5 RES5   0.0000
   865 N1      -7.9714  13.4977  -1.4192   N.2       5 RES5   0.0000
   866 N2      -7.6369  16.4661  -0.3804   N.2       5 RES5   0.0000
   867 N3      -7.6220  13.9237   1.8154   N.2       5 RES5   0.0000
   868 N4     -10.3048  14.8873   0.5165   N.2       5 RES5   0.0000
   869 Zn1     -8.3527  14.6757   0.1303   Zn        5 RES5   0.0000
   870 C1     -14.6210  13.1864   2.4753   C.2       5 RES5   0.0000
   871 H1     -13.6957  13.2482   2.5431   H         5 RES5   0.0000
   872 C2     -16.6210  13.3338   1.6856   C.2       5 RES5   0.0000
   873 C3     -17.7670  13.5747   0.9636   C.2       5 RES5   0.0000
   874 H3     -17.7395  13.9927   0.1345   H         5 RES5   0.0000
   875 C4     -18.9510  13.1645   1.5185   C.2       5 RES5   0.0000
   876 H4     -19.7418  13.3039   1.0503   H         5 RES5   0.0000
   877 C5     -19.0050  12.5374   2.7906   C.2       5 RES5   0.0000
   878 H5     -19.8280  12.2706   3.1342   H         5 RES5   0.0000
   879 C6     -14.1670  12.3881  -2.3056   C.2       5 RES5   0.0000
   880 C7     -13.2267  11.5479  -1.7350   C.2       5 RES5   0.0000
   881 H7     -12.8681  11.7191  -0.8932   H         5 RES5   0.0000
   882 C8     -16.1601  17.0906   0.1014   C.2       5 RES5   0.0000
   883 H8     -16.6107  16.7681   0.8470   H         5 RES5   0.0000
   884 C9     -14.8222  17.1862  -1.5332   C.2       5 RES5   0.0000
   885 C10    -13.8658  16.9751  -2.5736   C.2       5 RES5   0.0000
   886 H10    -13.4083  16.1708  -2.6414   H         5 RES5   0.0000
   887 C11    -12.1669  15.6532   1.4712   C.2       5 RES5   0.0000
   888 C12    -12.9865  16.3759   2.4138   C.2       5 RES5   0.0000
   889 H12    -13.9152  16.3599   2.3666   H         5 RES5   0.0000
   890 C13    -13.6394  17.9766  -3.4610   C.2       5 RES5   0.0000
   891 H13    -13.0060  17.8471  -4.1294   H         5 RES5   0.0000
   892 C14    -12.3129  17.0966   3.4022   C.2       5 RES5   0.0000
   893 H14    -12.7968  17.5883   4.0248   H         5 RES5   0.0000
   894 N1     -15.2854  13.6523   1.4192   N.2       5 RES5   0.0000
   895 N2     -12.5474  14.8468   0.3804   N.2       5 RES5   0.0000
   896 N3     -14.7417  13.5627  -1.8154   N.2       5 RES5   0.0000
   897 N4     -15.2486  16.3679  -0.5165   N.2       5 RES5   0.0000
   898 Zn1    -14.4558  14.5715  -0.1303   Zn        5 RES5   0.0000
   899 C1      -4.1093  20.5627   2.4753   C.2       5 RES5   0.0000
   900 H1      -4.6254  21.3332   2.5431   H         5 RES5   0.0000
   901 C2      -3.2369  18.7570   1.6856   C.2       5 RES5   0.0000
   902 C3      -2.8725  17.6441   0.9636   C.2       5 RES5   0.0000
   903 H3      -3.2483  17.4589   0.1345   H         5 RES5   0.0000
   904 C4      -1.9253  16.8238   1.5185   C.2       5 RES5   0.0000
   905 H4      -1.6506  16.0693   1.0503   H         5 RES5   0.0000
   906 C5      -1.3552  17.0906   2.7906   C.2       5 RES5   0.0000
   907 H5      -0.7127  16.5112   3.1342   H         5 RES5   0.0000
   908 C6      -3.6449  21.3551  -2.3056   C.2       5 RES5   0.0000
   909 C7      -3.3874  22.5895  -1.7350   C.2       5 RES5   0.0000
   910 H7      -3.7150  22.8145  -0.8932   H         5 RES5   0.0000
   911 C8      -6.7208  17.2777   0.1014   C.2       5 RES5   0.0000
   912 H8      -6.2162  17.0488   0.8470   H         5 RES5   0.0000
   913 C9      -7.4726  18.3887  -1.5332   C.2       5 RES5   0.0000
   914 C10     -7.7680  19.3224  -2.5736   C.2       5 RES5   0.0000
   915 H10     -7.3002  20.1208  -2.6414   H         5 RES5   0.0000
   916 C11     -7.4726  21.4547   1.4712   C.2       5 RES5   0.0000
   917 C12     -7.6887  20.3836   2.4138   C.2       5 RES5   0.0000
   918 H12     -7.2105  19.5872   2.3666   H         5 RES5   0.0000
   919 C13     -8.7485  19.0178  -3.4610   C.2       5 RES5   0.0000
   920 H13     -8.9531  19.6310  -4.1294   H         5 RES5   0.0000
   921 C14     -8.6496  20.6065   3.4022   C.2       5 RES5   0.0000
   922 H14     -8.8335  19.9416   4.0248   H         5 RES5   0.0000
   923 N1      -4.1805  19.7544   1.4192   N.2       5 RES5   0.0000
   924 N2      -6.5840  21.5283   0.3804   N.2       5 RES5   0.0000
   925 N3      -4.3748  20.2701  -1.8154   N.2       5 RES5   0.0000
   926 N4      -6.5507  18.4285  -0.5165   N.2       5 RES5   0.0000
   927 Zn1     -5.3914  20.0132  -0.1303   Zn        5 RES5   0.0000
   928 C1      -8.3680  26.6317  -2.4753   C.2       5 RES5   0.0000
   929 H1      -9.2933  26.5700  -2.5431   H         5 RES5   0.0000
   930 C2      -6.3680  26.4844  -1.6856   C.2       5 RES5   0.0000
   931 C3      -5.2220  26.2435  -0.9636   C.2       5 RES5   0.0000
   932 H3      -5.2495  25.8254  -0.1345   H         5 RES5   0.0000
   933 C4      -4.0380  26.6536  -1.5185   C.2       5 RES5   0.0000
   934 H4      -3.2472  26.5142  -1.0503   H         5 RES5   0.0000
   935 C5      -3.9840  27.2807  -2.7906   C.2       5 RES5   0.0000
   936 H5      -3.1610  27.5475  -3.1342   H         5 RES5   0.0000
   937 C6      -8.8220  27.4300   2.3056   C.2       5 RES5   0.0000
   938 C7      -9.7623  28.2702   1.7350   C.2       5 RES5   0.0000
   939 H7     -10.1209  28.0990   0.8932   H         5 RES5   0.0000
   940 C8      -6.8289  22.7275  -0.1014   C.2       5 RES5   0.0000
   941 H8      -6.3783  23.0500  -0.8470   H         5 RES5   0.0000
   942 C9      -8.1668  22.6320   1.5332   C.2       5 RES5   0.0000
   943 C10     -9.1232  22.8430   2.5736   C.2       5 RES5   0.0000
   944 H10     -9.5807  23.6473   2.6414   H         5 RES5   0.0000
   945 C11    -10.8221  24.1650  -1.4712   C.2       5 RES5   0.0000
   946 C12    -10.0025  23.4423  -2.4138   C.2       5 RES5   0.0000
   947 H12     -9.0738  23.4582  -2.3666   H         5 RES5   0.0000
   948 C13     -9.3496  21.8416   3.4610   C.2       5 RES5   0.0000
   949 H13     -9.9830  21.9710   4.1294   H         5 RES5   0.0000
   950 C14    -10.6761  22.7215  -3.4022   C.2       5 RES5   0.0000
   951 H14    -10.1922  22.2298  -4.0248   H         5 RES5   0.0000
   952 N1      -7.7036  26.1658  -1.4192   N.2       5 RES5   0.0000
   953 N2     -10.4416  24.9713  -0.3804   N.2       5 RES5   0.0000
   954 N3      -8.2473  26.2554   1.8154   N.2       5 RES5   0.0000
   955 N4      -7.7404  23.4502   0.5165   N.2       5 RES5   0.0000
   956 Zn1     -8.5332  25.2466   0.1303   Zn        5 RES5   0.0000
   957 C1     -18.8797  19.2554  -2.4753   C.2       5 RES5   0.0000
   958 H1     -18.3636  18.4849  -2.5431   H         5 RES5   0.0000
   959 C2     -19.7521  21.0611  -1.6856   C.2       5 RES5   0.0000
   960 C3     -20.1165  22.1740  -0.9636   C.2       5 RES5   0.0000
   961 H3     -19.7407  22.3592  -0.1345   H         5 RES5   0.0000
   962 C4     -21.0637  22.9943  -1.5185   C.2       5 RES5   0.0000
   963 H4     -21.3384  23.7489  -1.0503   H         5 RES5   0.0000
   964 C5     -21.6338  22.7275  -2.7906   C.2       5 RES5   0.0000
   965 H5     -22.2763  23.3069  -3.1342   H         5 RES5   0.0000
   966 C6     -19.3441  18.4630   2.3056   C.2       5 RES5   0.0000
   967 C7     -19.6016  17.2286   1.7350   C.2       5 RES5   0.0000
   968 H7     -19.2740  17.0037   0.8932   H         5 RES5   0.0000
   969 C8     -16.2682  22.5404  -0.1014   C.2       5 RES5   0.0000
   970 H8     -16.7728  22.7693  -0.8470   H         5 RES5   0.0000
   971 C9     -15.5164  21.4294   1.5332   C.2       5 RES5   0.0000
   972 C10    -15.2210  20.4957   2.5736   C.2       5 RES5   0.0000
   973 H10    -15.6888  19.6974   2.6414   H         5 RES5   0.0000
   974 C11    -15.5164  18.3635  -1.4712   C.2       5 RES5   0.0000
   975 C12    -15.3003  19.4346  -2.4138   C.2       5 RES5   0.0000
   976 H12    -15.7785  20.2309  -2.3666   H         5 RES5   0.0000
   977 C13    -14.2405  20.8003   3.4610   C.2       5 RES5   0.0000
   978 H13    -14.0359  20.1871   4.1294   H         5 RES5   0.0000
   979 C14    -14.3394  19.2116  -3.4022   C.2       5 RES5   0.0000
   980 H14    -14.1555  19.8765  -4.0248   H         5 RES5   0.0000
   981 N1     -18.8085  20.0637  -1.4192   N.2       5 RES5   0.0000
   982 N2     -16.4050  18.2898  -0.3804   N.2       5 RES5   0.0000
   983 N3     -18.6142  19.5480   1.8154   N.2       5 RES5   0.0000
   984 N4     -16.4383  21.3896   0.5165   N.2       5 RES5   0.0000
   985 Zn1    -17.5976  19.8049   0.1303   Zn        5 RES5   0.0000
   986 C1     -15.7532  25.9780   2.4753   C.2       5 RES5   0.0000
   987 H1     -16.1624  25.1458   2.5431   H         5 RES5   0.0000
   988 C2     -14.6256  27.6364   1.6856   C.2       5 RES5   0.0000
   989 C3     -13.8440  28.5084   0.9636   C.2       5 RES5   0.0000
   990 H3     -13.4957  28.2755   0.1345   H         5 RES5   0.0000
   991 C4     -13.6072  29.7388   1.5185   C.2       5 RES5   0.0000
   992 H4     -13.0911  30.3540   1.0503   H         5 RES5   0.0000
   993 C5     -14.1233  30.0992   2.7906   C.2       5 RES5   0.0000
   994 H5     -13.9428  30.9453   3.1342   H         5 RES5   0.0000
   995 C6     -16.6716  25.9840  -2.3056   C.2       5 RES5   0.0000
   996 C7     -17.8693  25.5898  -1.7350   C.2       5 RES5   0.0000
   997 H7     -17.9004  25.1936  -0.8932   H         5 RES5   0.0000
   998 C8     -11.6025  25.3588   0.1014   C.2       5 RES5   0.0000
   999 H8     -11.6566  25.9103   0.8470   H         5 RES5   0.0000
  1000 C9     -12.1888  24.1523  -1.5332   C.2       5 RES5   0.0000
  1001 C10    -12.8497  23.4296  -2.5736   C.2       5 RES5   0.0000
  1002 H10    -13.7750  23.4356  -2.6414   H         5 RES5   0.0000
  1003 C11    -14.8440  22.6193   1.4712   C.2       5 RES5   0.0000
  1004 C12    -13.8083  22.9678   2.4138   C.2       5 RES5   0.0000
  1005 H12    -13.3578  23.7800   2.3666   H         5 RES5   0.0000
  1006 C13    -12.0957  22.7328  -3.4610   C.2       5 RES5   0.0000
  1007 H13    -12.5244  22.2490  -4.1294   H         5 RES5   0.0000
  1008 C14    -13.5210  22.0241   3.4022   C.2       5 RES5   0.0000
  1009 H14    -12.8531  22.1973   4.0248   H         5 RES5   0.0000
  1010 N1     -15.0176  26.3204   1.4192   N.2       5 RES5   0.0000
  1011 N2     -15.3521  23.3520   0.3804   N.2       5 RES5   0.0000
  1012 N3     -15.3670  25.8944  -1.8154   N.2       5 RES5   0.0000
  1013 N4     -12.6842  24.9308  -0.5165   N.2       5 RES5   0.0000
  1014 Zn1    -14.6363  25.1424  -0.1303   Zn        5 RES5   0.0000
  1015 C1     -18.7303  20.4765   2.7790   C.2       5 RES5   0.0000
  1016 C1      -8.3680  13.3590   2.7790   C.2       5 RES5   0.0000
  1017 C1      -7.3852  25.8917   2.7790   C.2       5 RES5   0.0000
  1018 C1      -4.2587  19.3416  -2.7790   C.2       5 RES5   0.0000
  1019 C1     -14.6210  26.4591  -2.7790   C.2       5 RES5   0.0000
  1020 C1     -15.6038  13.9264  -2.7790   C.2       5 RES5   0.0000
  1021 C2     -19.8579  18.8180   3.5687   C.2       5 RES5   0.0000
  1022 C2      -6.3680  13.2117   3.5687   C.2       5 RES5   0.0000
  1023 C2      -8.2576  27.6975   3.5687   C.2       5 RES5   0.0000
  1024 C2      -3.1311  21.0001  -3.5687   C.2       5 RES5   0.0000
  1025 C2     -16.6210  26.6065  -3.5687   C.2       5 RES5   0.0000
  1026 C2     -14.7314  12.1206  -3.5687   C.2       5 RES5   0.0000
  1027 C5     -20.3602  16.3553   2.4638   C.2       5 RES5   0.0000
  1028 C5      -3.9840  14.0080   2.4638   C.2       5 RES5   0.0000
  1029 C5     -10.1393  29.3639   2.4638   C.2       5 RES5   0.0000
  1030 C5      -2.6288  23.4628  -2.4638   C.2       5 RES5   0.0000
  1031 C5     -19.0050  25.8101  -2.4638   C.2       5 RES5   0.0000
  1032 C5     -12.8497  10.4542  -2.4638   C.2       5 RES5   0.0000
  1033 C6      -6.3174  27.1068  -2.9487   C.2       5 RES5   0.0000
  1034 C6     -20.3165  20.7937  -2.9487   C.2       5 RES5   0.0000
  1035 C6      -7.8496  11.8266  -2.9487   C.2       5 RES5   0.0000
  1036 C6     -16.6716  12.7113   2.9487   C.2       5 RES5   0.0000
  1037 C6      -2.6725  19.0244   2.9487   C.2       5 RES5   0.0000
  1038 C6     -15.1394  27.9915   2.9487   C.2       5 RES5   0.0000
  1039 C7      -5.1197  27.5010  -3.5194   C.2       5 RES5   0.0000
  1040 C7     -21.2568  21.6338  -3.5194   C.2       5 RES5   0.0000
  1041 C7      -8.1071  10.5923  -3.5194   C.2       5 RES5   0.0000
  1042 C7     -17.8693  12.3171   3.5194   C.2       5 RES5   0.0000
  1043 C7      -1.7322  18.1843   3.5194   C.2       5 RES5   0.0000
  1044 C7     -14.8819  29.2258   3.5194   C.2       5 RES5   0.0000
  1045 N3      -7.6220  27.1964  -3.4390   N.2       5 RES5   0.0000
  1046 N3     -19.7418  19.6190  -3.4390   N.2       5 RES5   0.0000
  1047 N3      -7.1197  12.9117  -3.4390   N.2       5 RES5   0.0000
  1048 N3     -15.3670  12.6217   3.4390   N.2       5 RES5   0.0000
  1049 N3      -3.2472  20.1991   3.4390   N.2       5 RES5   0.0000
  1050 N3     -15.8693  26.9064   3.4390   N.2       5 RES5   0.0000
  1051 C1      -7.2358  13.8401  13.2877   C.2       6 RES6   0.0000
  1052 H1      -6.8266  14.6723  13.2199   H         6 RES6   0.0000
  1053 C2      -8.3634  12.1817  14.0774   C.2       6 RES6   0.0000
  1054 C3      -9.1450  11.3097  14.7994   C.2       6 RES6   0.0000
  1055 H3      -9.4933  11.5426  15.6285   H         6 RES6   0.0000
  1056 C4      -9.3818  10.0793  14.2445   C.2       6 RES6   0.0000
  1057 H4      -9.8979   9.4641  14.7127   H         6 RES6   0.0000
  1058 C5      -8.8657   9.7189  12.9724   C.2       6 RES6   0.0000
  1059 H5      -9.0462   8.8728  12.6288   H         6 RES6   0.0000
  1060 C6      -6.3174  13.8341  18.0686   C.2       6 RES6   0.0000
  1061 C7      -5.1197  14.2283  17.4980   C.2       6 RES6   0.0000
  1062 H7      -5.0886  14.6245  16.6562   H         6 RES6   0.0000
  1063 C8     -11.3865  14.4593  15.6616   C.2       6 RES6   0.0000
  1064 H8     -11.3324  13.9078  14.9160   H         6 RES6   0.0000
  1065 C9     -10.8002  15.6658  17.2962   C.2       6 RES6   0.0000
  1066 C10    -10.1393  16.3885  18.3366   C.2       6 RES6   0.0000
  1067 H10     -9.2140  16.3825  18.4044   H         6 RES6   0.0000
  1068 C11     -8.1450  17.1988  14.2918   C.2       6 RES6   0.0000
  1069 C12     -9.1807  16.8504  13.3492   C.2       6 RES6   0.0000
  1070 H12     -9.6312  16.0381  13.3964   H         6 RES6   0.0000
  1071 C13    -10.8933  17.0853  19.2240   C.2       6 RES6   0.0000
  1072 H13    -10.4646  17.5691  19.8924   H         6 RES6   0.0000
  1073 C14     -9.4680  17.7941  12.3608   C.2       6 RES6   0.0000
  1074 H14    -10.1359  17.6208  11.7382   H         6 RES6   0.0000
  1075 N1      -7.9714  13.4977  14.3438   N.2       6 RES6   0.0000
  1076 N2      -7.6369  16.4661  15.3826   N.2       6 RES6   0.0000
  1077 N3      -7.6220  13.9237  17.5784   N.2       6 RES6   0.0000
  1078 N4     -10.3048  14.8873  16.2795   N.2       6 RES6   0.0000
  1079 Zn1     -8.3527  14.6757  15.8933   Zn        6 RES6   0.0000
  1080 C1     -14.6210  13.1864  18.2383   C.2       6 RES6   0.0000
  1081 H1     -13.6957  13.2482  18.3061   H         6 RES6   0.0000
  1082 C2     -16.6210  13.3338  17.4486   C.2       6 RES6   0.0000
  1083 C3     -17.7670  13.5747  16.7266   C.2       6 RES6   0.0000
  1084 H3     -17.7395  13.9927  15.8975   H         6 RES6   0.0000
  1085 C4     -18.9510  13.1645  17.2815   C.2       6 RES6   0.0000
  1086 H4     -19.7418  13.3039  16.8133   H         6 RES6   0.0000
  1087 C5     -19.0050  12.5374  18.5536   C.2       6 RES6   0.0000
  1088 H5     -19.8280  12.2706  18.8972   H         6 RES6   0.0000
  1089 C6     -14.1670  12.3881  13.4574   C.2       6 RES6   0.0000
  1090 C7     -13.2267  11.5479  14.0280   C.2       6 RES6   0.0000
  1091 H7     -12.8681  11.7191  14.8698   H         6 RES6   0.0000
  1092 C8     -16.1601  17.0906  15.8644   C.2       6 RES6   0.0000
  1093 H8     -16.6107  16.7681  16.6100   H         6 RES6   0.0000
  1094 C9     -14.8222  17.1862  14.2298   C.2       6 RES6   0.0000
  1095 C10    -13.8658  16.9751  13.1894   C.2       6 RES6   0.0000
  1096 H10    -13.4083  16.1708  13.1216   H         6 RES6   0.0000
  1097 C11    -12.1669  15.6532  17.2342   C.2       6 RES6   0.0000
  1098 C12    -12.9865  16.3759  18.1768   C.2       6 RES6   0.0000
  1099 H12    -13.9152  16.3599  18.1296   H         6 RES6   0.0000
  1100 C13    -13.6394  17.9766  12.3020   C.2       6 RES6   0.0000
  1101 H13    -13.0060  17.8471  11.6336   H         6 RES6   0.0000
  1102 C14    -12.3129  17.0966  19.1652   C.2       6 RES6   0.0000
  1103 H14    -12.7968  17.5883  19.7878   H         6 RES6   0.0000
  1104 N1     -15.2854  13.6523  17.1822   N.2       6 RES6   0.0000
  1105 N2     -12.5474  14.8468  16.1434   N.2       6 RES6   0.0000
  1106 N3     -14.7417  13.5627  13.9476   N.2       6 RES6   0.0000
  1107 N4     -15.2486  16.3679  15.2465   N.2       6 RES6   0.0000
  1108 Zn1    -14.4558  14.5715  15.6327   Zn        6 RES6   0.0000
  1109 C1      -4.1093  20.5627  18.2383   C.2       6 RES6   0.0000
  1110 H1      -4.6254  21.3332  18.3061   H         6 RES6   0.0000
  1111 C2      -3.2369  18.7570  17.4486   C.2       6 RES6   0.0000
  1112 C3      -2.8725  17.6441  16.7266   C.2       6 RES6   0.0000
  1113 H3      -3.2483  17.4589  15.8975   H         6 RES6   0.0000
  1114 C4      -1.9253  16.8238  17.2815   C.2       6 RES6   0.0000
  1115 H4      -1.6506  16.0693  16.8133   H         6 RES6   0.0000
  1116 C5      -1.3552  17.0906  18.5536   C.2       6 RES6   0.0000
  1117 H5      -0.7127  16.5112  18.8972   H         6 RES6   0.0000
  1118 C6      -3.6449  21.3551  13.4574   C.2       6 RES6   0.0000
  1119 C7      -3.3874  22.5895  14.0280   C.2       6 RES6   0.0000
  1120 H7      -3.7150  22.8145  14.8698   H         6 RES6   0.0000
  1121 C8      -6.7208  17.2777  15.8644   C.2       6 RES6   0.0000
  1122 H8      -6.2162  17.0488  16.6100   H         6 RES6   0.0000
  1123 C9      -7.4726  18.3887  14.2298   C.2       6 RES6   0.0000
  1124 C10     -7.7680  19.3224  13.1894   C.2       6 RES6   0.0000
  1125 H10     -7.3002  20.1208  13.1216   H         6 RES6   0.0000
  1126 C11     -7.4726  21.4547  17.2342   C.2       6 RES6   0.0000
  1127 C12     -7.6887  20.3836  18.1768   C.2       6 RES6   0.0000
  1128 H12     -7.2105  19.5872  18.1296   H         6 RES6   0.0000
  1129 C13     -8.7485  19.0178  12.3020   C.2       6 RES6   0.0000
  1130 H13     -8.9531  19.6310  11.6336   H         6 RES6   0.0000
  1131 C14     -8.6496  20.6065  19.1652   C.2       6 RES6   0.0000
  1132 H14     -8.8335  19.9416  19.7878   H         6 RES6   0.0000
  1133 N1      -4.1805  19.7544  17.1822   N.2       6 RES6   0.0000
  1134 N2      -6.5840  21.5283  16.1434   N.2       6 RES6   0.0000
  1135 N3      -4.3748  20.2701  13.9476   N.2       6 RES6   0.0000
  1136 N4      -6.5507  18.4285  15.2465   N.2       6 RES6   0.0000
  1137 Zn1     -5.3914  20.0132  15.6327   Zn        6 RES6   0.0000
  1138 C1      -8.3680  26.6317  13.2877   C.2       6 RES6   0.0000
  1139 H1      -9.2933  26.5700  13.2199   H         6 RES6   0.0000
  1140 C2      -6.3680  26.4844  14.0774   C.2       6 RES6   0.0000
  1141 C3      -5.2220  26.2435  14.7994   C.2       6 RES6   0.0000
  1142 H3      -5.2495  25.8254  15.6285   H         6 RES6   0.0000
  1143 C4      -4.0380  26.6536  14.2445   C.2       6 RES6   0.0000
  1144 H4      -3.2472  26.5142  14.7127   H         6 RES6   0.0000
  1145 C5      -3.9840  27.2807  12.9724   C.2       6 RES6   0.0000
  1146 H5      -3.1610  27.5475  12.6288   H         6 RES6   0.0000
  1147 C6      -8.8220  27.4300  18.0686   C.2       6 RES6   0.0000
  1148 C7      -9.7623  28.2702  17.4980   C.2       6 RES6   0.0000
  1149 H7     -10.1209  28.0990  16.6562   H         6 RES6   0.0000
  1150 C8      -6.8289  22.7275  15.6616   C.2       6 RES6   0.0000
  1151 H8      -6.3783  23.0500  14.9160   H         6 RES6   0.0000
  1152 C9      -8.1668  22.6320  17.2962   C.2       6 RES6   0.0000
  1153 C10     -9.1232  22.8430  18.3366   C.2       6 RES6   0.0000
  1154 H10     -9.5807  23.6473  18.4044   H         6 RES6   0.0000
  1155 C11    -10.8221  24.1650  14.2918   C.2       6 RES6   0.0000
  1156 C12    -10.0025  23.4423  13.3492   C.2       6 RES6   0.0000
  1157 H12     -9.0738  23.4582  13.3964   H         6 RES6   0.0000
  1158 C13     -9.3496  21.8416  19.2240   C.2       6 RES6   0.0000
  1159 H13     -9.9830  21.9710  19.8924   H         6 RES6   0.0000
  1160 C14    -10.6761  22.7215  12.3608   C.2       6 RES6   0.0000
  1161 H14    -10.1922  22.2298  11.7382   H         6 RES6   0.0000
  1162 N1      -7.7036  26.1658  14.3438   N.2       6 RES6   0.0000
  1163 N2     -10.4416  24.9713  15.3826   N.2       6 RES6   0.0000
  1164 N3      -8.2473  26.2554  17.5784   N.2       6 RES6   0.0000
  1165 N4      -7.7404  23.4502  16.2795   N.2       6 RES6   0.0000
  1166 Zn1     -8.5332  25.2466  15.8933   Zn        6 RES6   0.0000
  1167 C1     -18.8797  19.2554  13.2877   C.2       6 RES6   0.0000
  1168 H1     -18.3636  18.4849  13.2199   H         6 RES6   0.0000
  1169 C2     -19.7521  21.0611  14.0774   C.2       6 RES6   0.0000
  1170 C3     -20.1165  22.1740  14.7994   C.2       6 RES6   0.0000
  1171 H3     -19.7407  22.3592  15.6285   H         6 RES6   0.0000
  1172 C4     -21.0637  22.9943  14.2445   C.2       6 RES6   0.0000
  1173 H4     -21.3384  23.7489  14.7127   H         6 RES6   0.0000
  1174 C5     -21.6338  22.7275  12.9724   C.2       6 RES6   0.0000
  1175 H5     -22.2763  23.3069  12.6288   H         6 RES6   0.0000
  1176 C6     -19.3441  18.4630  18.0686   C.2       6 RES6   0.0000
  1177 C7     -19.6016  17.2286  17.4980   C.2       6 RES6   0.0000
  1178 H7     -19.2740  17.0037  16.6562   H         6 RES6   0.0000
  1179 C8     -16.2682  22.5404  15.6616   C.2       6 RES6   0.0000
  1180 H8     -16.7728  22.7693  14.9160   H         6 RES6   0.0000
  1181 C9     -15.5164  21.4294  17.2962   C.2       6 RES6   0.0000
  1182 C10    -15.2210  20.4957  18.3366   C.2       6 RES6   0.0000
  1183 H10    -15.6888  19.6974  18.4044   H         6 RES6   0.0000
  1184 C11    -15.5164  18.3635  14.2918   C.2       6 RES6   0.0000
  1185 C12    -15.3003  19.4346  13.3492   C.2       6 RES6   0.0000
  1186 H12    -15.7785  20.2309  13.3964   H         6 RES6   0.0000
  1187 C13    -14.2405  20.8003  19.2240   C.2       6 RES6   0.0000
  1188 H13    -14.0359  20.1871  19.8924   H         6 RES6   0.0000
  1189 C14    -14.3394  19.2116  12.3608   C.2       6 RES6   0.0000
  1190 H14    -14.1555  19.8765  11.7382   H         6 RES6   0.0000
  1191 N1     -18.8085  20.0637  14.3438   N.2       6 RES6   0.0000
  1192 N2     -16.4050  18.2898  15.3826   N.2       6 RES6   0.0000
  1193 N3     -18.6142  19.5480  17.5784   N.2       6 RES6   0.0000
  1194 N4     -16.4383  21.3896  16.2795   N.2       6 RES6   0.0000
  1195 Zn1    -17.5976  19.8049  15.8933   Zn        6 RES6   0.0000
  1196 C1     -15.7532  25.9780  18.2383   C.2       6 RES6   0.0000
  1197 H1     -16.1624  25.1458  18.3061   H         6 RES6   0.0000
  1198 C2     -14.6256  27.6364  17.4486   C.2       6 RES6   0.0000
  1199 C3     -13.8440  28.5084  16.7266   C.2       6 RES6   0.0000
  1200 H3     -13.4957  28.2755  15.8975   H         6 RES6   0.0000
  1201 C4     -13.6072  29.7388  17.2815   C.2       6 RES6   0.0000
  1202 H4     -13.0911  30.3540  16.8133   H         6 RES6   0.0000
  1203 C5     -14.1233  30.0992  18.5536   C.2       6 RES6   0.0000
  1204 H5     -13.9428  30.9453  18.8972   H         6 RES6   0.0000
  1205 C6     -16.6716  25.9840  13.4574   C.2       6 RES6   0.0000
  1206 C7     -17.8693  25.5898  14.0280   C.2       6 RES6   0.0000
  1207 H7     -17.9004  25.1936  14.8698   H         6 RES6   0.0000
  1208 C8     -11.6025  25.3588  15.8644   C.2       6 RES6   0.0000
  1209 H8     -11.6566  25.9103  16.6100   H         6 RES6   0.0000
  1210 C9     -12.1888  24.1523  14.2298   C.2       6 RES6   0.0000
  1211 C10    -12.8497  23.4296  13.1894   C.2       6 RES6   0.0000
  1212 H10    -13.7750  23.4356  13.1216   H         6 RES6   0.0000
  1213 C11    -14.8440  22.6193  17.2342   C.2       6 RES6   0.0000
  1214 C12    -13.8083  22.9678  18.1768   C.2       6 RES6   0.0000
  1215 H12    -13.3578  23.7800  18.1296   H         6 RES6   0.0000
  1216 C13    -12.0957  22.7328  12.3020   C.2       6 RES6   0.0000
  1217 H13    -12.5244  22.2490  11.6336   H         6 RES6   0.0000
  1218 C14    -13.5210  22.0241  19.1652   C.2       6 RES6   0.0000
  1219 H14    -12.8531  22.1973  19.7878   H         6 RES6   0.0000
  1220 N1     -15.0176  26.3204  17.1822   N.2       6 RES6   0.0000
  1221 N2     -15.3521  23.3520  16.1434   N.2       6 RES6   0.0000
  1222 N3     -15.3670  25.8944  13.9476   N.2       6 RES6   0.0000
  1223 N4     -12.6842  24.9308  15.2465   N.2       6 RES6   0.0000
  1224 Zn1    -14.6363  25.1424  15.6327   Zn        6 RES6   0.0000
  1225 C1     -18.7303  20.4765  18.5420   C.2       6 RES6   0.0000
  1226 C1      -8.3680  13.3590  18.5420   C.2       6 RES6   0.0000
  1227 C1      -7.3852  25.8917  18.5420   C.2       6 RES6   0.0000
  1228 C1      -4.2587  19.3416  12.9840   C.2       6 RES6   0.0000
  1229 C1     -14.6210  26.4591  12.9840   C.2       6 RES6   0.0000
  1230 C1     -15.6038  13.9264  12.9840   C.2       6 RES6   0.0000
  1231 C2     -19.8579  18.8180  19.3317   C.2       6 RES6   0.0000
  1232 C2      -6.3680  13.2117  19.3317   C.2       6 RES6   0.0000
  1233 C2      -8.2576  27.6975  19.3317   C.2       6 RES6   0.0000
  1234 C2      -3.1311  21.0001  12.1943   C.2       6 RES6   0.0000
  1235 C2     -16.6210  26.6065  12.1943   C.2       6 RES6   0.0000
  1236 C2     -14.7314  12.1206  12.1943   C.2       6 RES6   0.0000
  1237 C5     -20.3602  16.3553  18.2268   C.2       6 RES6   0.0000
  1238 C5      -3.9840  14.0080  18.2268   C.2       6 RES6   0.0000
  1239 C5     -10.1393  29.3639  18.2268   C.2       6 RES6   0.0000
  1240 C5      -2.6288  23.4628  13.2992   C.2       6 RES6   0.0000
  1241 C5     -19.0050  25.8101  13.2992   C.2       6 RES6   0.0000
  1242 C5     -12.8497  10.4542  13.2992   C.2       6 RES6   0.0000
  1243 C6      -6.3174  27.1068  12.8143   C.2       6 RES6   0.0000
  1244 C6     -20.3165  20.7937  12.8143   C.2       6 RES6   0.0000
  1245 C6      -7.8496  11.8266  12.8143   C.2       6 RES6   0.0000
  1246 C6     -16.6716  12.7113  18.7117   C.2       6 RES6   0.0000
  1247 C6      -2.6725  19.0244  18.7117   C.2       6 RES6   0.0000
  1248 C6     -15.1394  27.9915  18.7117   C.2       6 RES6   0.0000
  1249 C7      -5.1197  27.5010  12.2436   C.2       6 RES6   0.0000
  1250 C7     -21.2568  21.6338  12.2436   C.2       6 RES6   0.0000
  1251 C7      -8.1071  10.5923  12.2436   C.2       6 RES6   0.0000
  1252 C7     -17.8693  12.3171  19.2824   C.2       6 RES6   0.0000
  1253 C7      -1.7322  18.1843  19.2824   C.2       6 RES6   0.0000
  1254 C7     -14.8819  29.2258  19.2824   C.2       6 RES6   0.0000
  1255 N3      -7.6220  27.1964  12.3240   N.2       6 RES6   0.0000
  1256 N3     -19.7418  19.6190  12.3240   N.2       6 RES6   0.0000
  1257 N3      -7.1197  12.9117  12.3240   N.2       6 RES6   0.0000
  1258 N3     -15.3670  12.6217  19.2020   N.2       6 RES6   0.0000
  1259 N3      -3.2472  20.1991  19.2020   N.2       6 RES6   0.0000
  1260 N3     -15.8693  26.9064  19.2020   N.2       6 RES6   0.0000
  1261 C1      27.2477  -6.0689  -2.4753   C.2       7 RES7   0.0000
  1262 H1      27.6569  -5.2367  -2.5431   H         7 RES7   0.0000
  1263 C2      26.1201  -7.7274  -1.6856   C.2       7 RES7   0.0000
  1264 C3      25.3385  -8.5994  -0.9636   C.2       7 RES7   0.0000
  1265 H3      24.9902  -8.3664  -0.1345   H         7 RES7   0.0000
  1266 C4      25.1017  -9.8298  -1.5185   C.2       7 RES7   0.0000
  1267 H4      24.5856 -10.4450  -1.0503   H         7 RES7   0.0000
  1268 C5      25.6178 -10.1901  -2.7906   C.2       7 RES7   0.0000
  1269 H5      25.4373 -11.0363  -3.1342   H         7 RES7   0.0000
  1270 C6      28.1661  -6.0749   2.3056   C.2       7 RES7   0.0000
  1271 C7      29.3638  -5.6807   1.7350   C.2       7 RES7   0.0000
  1272 H7      29.3949  -5.2845   0.8932   H         7 RES7   0.0000
  1273 C8      23.0970  -5.4498  -0.1014   C.2       7 RES7   0.0000
  1274 H8      23.1511  -6.0013  -0.8470   H         7 RES7   0.0000
  1275 C9      23.6833  -4.2433   1.5332   C.2       7 RES7   0.0000
  1276 C10     24.3442  -3.5206   2.5736   C.2       7 RES7   0.0000
  1277 H10     25.2695  -3.5266   2.6414   H         7 RES7   0.0000
  1278 C11     26.3385  -2.7103  -1.4712   C.2       7 RES7   0.0000
  1279 C12     25.3028  -3.0587  -2.4138   C.2       7 RES7   0.0000
  1280 H12     24.8523  -3.8710  -2.3666   H         7 RES7   0.0000
  1281 C13     23.5902  -2.8238   3.4610   C.2       7 RES7   0.0000
  1282 H13     24.0189  -2.3400   4.1294   H         7 RES7   0.0000
  1283 C14     25.0155  -2.1150  -3.4022   C.2       7 RES7   0.0000
  1284 H14     24.3476  -2.2882  -4.0248   H         7 RES7   0.0000
  1285 N1      26.5121  -6.4114  -1.4192   N.2       7 RES7   0.0000
  1286 N2      26.8466  -3.4429  -0.3804   N.2       7 RES7   0.0000
  1287 N3      26.8615  -5.9853   1.8154   N.2       7 RES7   0.0000
  1288 N4      24.1787  -5.0217   0.5165   N.2       7 RES7   0.0000
  1289 Zn1     26.1308  -5.2334   0.1303   Zn        7 RES7   0.0000
  1290 C1      19.8625  -6.7226   2.4753   C.2       7 RES7   0.0000
  1291 H1      20.7878  -6.6609   2.5431   H         7 RES7   0.0000
  1292 C2      17.8625  -6.5753   1.6856   C.2       7 RES7   0.0000
  1293 C3      16.7165  -6.3344   0.9636   C.2       7 RES7   0.0000
  1294 H3      16.7440  -5.9163   0.1345   H         7 RES7   0.0000
  1295 C4      15.5325  -6.7445   1.5185   C.2       7 RES7   0.0000
  1296 H4      14.7417  -6.6052   1.0503   H         7 RES7   0.0000
  1297 C5      15.4785  -7.3717   2.7906   C.2       7 RES7   0.0000
  1298 H5      14.6555  -7.6384   3.1342   H         7 RES7   0.0000
  1299 C6      20.3165  -7.5210  -2.3056   C.2       7 RES7   0.0000
  1300 C7      21.2568  -8.3611  -1.7350   C.2       7 RES7   0.0000
  1301 H7      21.6154  -8.1899  -0.8932   H         7 RES7   0.0000
  1302 C8      18.3234  -2.8185   0.1014   C.2       7 RES7   0.0000
  1303 H8      17.8728  -3.1410   0.8470   H         7 RES7   0.0000
  1304 C9      19.6613  -2.7229  -1.5332   C.2       7 RES7   0.0000
  1305 C10     20.6177  -2.9339  -2.5736   C.2       7 RES7   0.0000
  1306 H10     21.0752  -3.7383  -2.6414   H         7 RES7   0.0000
  1307 C11     22.3166  -4.2559   1.4712   C.2       7 RES7   0.0000
  1308 C12     21.4970  -3.5332   2.4138   C.2       7 RES7   0.0000
  1309 H12     20.5683  -3.5491   2.3666   H         7 RES7   0.0000
  1310 C13     20.8441  -1.9325  -3.4610   C.2       7 RES7   0.0000
  1311 H13     21.4775  -2.0619  -4.1294   H         7 RES7   0.0000
  1312 C14     22.1706  -2.8125   3.4022   C.2       7 RES7   0.0000
  1313 H14     21.6867  -2.3207   4.0248   H         7 RES7   0.0000
  1314 N1      19.1981  -6.2568   1.4192   N.2       7 RES7   0.0000
  1315 N2      21.9361  -5.0622   0.3804   N.2       7 RES7   0.0000
  1316 N3      19.7418  -6.3463  -1.8154   N.2       7 RES7   0.0000
  1317 N4      19.2349  -3.5412  -0.5165   N.2       7 RES7   0.0000
  1318 Zn1     20.0277  -5.3376  -0.1303   Zn        7 RES7   0.0000
  1319 C1      30.3742   0.6537   2.4753   C.2       7 RES7   0.0000
  1320 H1      29.8581   1.4242   2.5431   H         7 RES7   0.0000
  1321 C2      31.2466  -1.1521   1.6856   C.2       7 RES7   0.0000
  1322 C3      31.6110  -2.2650   0.9636   C.2       7 RES7   0.0000
  1323 H3      31.2352  -2.4501   0.1345   H         7 RES7   0.0000
  1324 C4      32.5582  -3.0852   1.5185   C.2       7 RES7   0.0000
  1325 H4      32.8329  -3.8398   1.0503   H         7 RES7   0.0000
  1326 C5      33.1283  -2.8185   2.7906   C.2       7 RES7   0.0000
  1327 H5      33.7708  -3.3978   3.1342   H         7 RES7   0.0000
  1328 C6      30.8386   1.4461  -2.3056   C.2       7 RES7   0.0000
  1329 C7      31.0961   2.6804  -1.7350   C.2       7 RES7   0.0000
  1330 H7      30.7685   2.9054  -0.8932   H         7 RES7   0.0000
  1331 C8      27.7627  -2.6313   0.1014   C.2       7 RES7   0.0000
  1332 H8      28.2673  -2.8603   0.8470   H         7 RES7   0.0000
  1333 C9      27.0109  -1.5204  -1.5332   C.2       7 RES7   0.0000
  1334 C10     26.7155  -0.5867  -2.5736   C.2       7 RES7   0.0000
  1335 H10     27.1833   0.2117  -2.6414   H         7 RES7   0.0000
  1336 C11     27.0109   1.5456   1.4712   C.2       7 RES7   0.0000
  1337 C12     26.7948   0.4745   2.4138   C.2       7 RES7   0.0000
  1338 H12     27.2730  -0.3219   2.3666   H         7 RES7   0.0000
  1339 C13     25.7350  -0.8913  -3.4610   C.2       7 RES7   0.0000
  1340 H13     25.5304  -0.2781  -4.1294   H         7 RES7   0.0000
  1341 C14     25.8339   0.6975   3.4022   C.2       7 RES7   0.0000
  1342 H14     25.6500   0.0325   4.0248   H         7 RES7   0.0000
  1343 N1      30.3030  -0.1546   1.4192   N.2       7 RES7   0.0000
  1344 N2      27.8995   1.6193   0.3804   N.2       7 RES7   0.0000
  1345 N3      30.1087   0.3610  -1.8154   N.2       7 RES7   0.0000
  1346 N4      27.9328  -1.4806  -0.5165   N.2       7 RES7   0.0000
  1347 Zn1     29.0921   0.1042  -0.1303   Zn        7 RES7   0.0000
  1348 C1      26.1155   6.7226  -2.4753   C.2       7 RES7   0.0000
  1349 H1      25.1902   6.6609  -2.5431   H         7 RES7   0.0000
  1350 C2      28.1155   6.5753  -1.6856   C.2       7 RES7   0.0000
  1351 C3      29.2615   6.3344  -0.9636   C.2       7 RES7   0.0000
  1352 H3      29.2340   5.9163  -0.1345   H         7 RES7   0.0000
  1353 C4      30.4455   6.7445  -1.5185   C.2       7 RES7   0.0000
  1354 H4      31.2363   6.6052  -1.0503   H         7 RES7   0.0000
  1355 C5      30.4995   7.3717  -2.7906   C.2       7 RES7   0.0000
  1356 H5      31.3225   7.6384  -3.1342   H         7 RES7   0.0000
  1357 C6      25.6615   7.5210   2.3056   C.2       7 RES7   0.0000
  1358 C7      24.7212   8.3611   1.7350   C.2       7 RES7   0.0000
  1359 H7      24.3626   8.1899   0.8932   H         7 RES7   0.0000
  1360 C8      27.6546   2.8185  -0.1014   C.2       7 RES7   0.0000
  1361 H8      28.1052   3.1410  -0.8470   H         7 RES7   0.0000
  1362 C9      26.3167   2.7229   1.5332   C.2       7 RES7   0.0000
  1363 C10     25.3603   2.9339   2.5736   C.2       7 RES7   0.0000
  1364 H10     24.9028   3.7383   2.6414   H         7 RES7   0.0000
  1365 C11     23.6614   4.2559  -1.4712   C.2       7 RES7   0.0000
  1366 C12     24.4810   3.5332  -2.4138   C.2       7 RES7   0.0000
  1367 H12     25.4097   3.5491  -2.3666   H         7 RES7   0.0000
  1368 C13     25.1339   1.9325   3.4610   C.2       7 RES7   0.0000
  1369 H13     24.5005   2.0619   4.1294   H         7 RES7   0.0000
  1370 C14     23.8074   2.8125  -3.4022   C.2       7 RES7   0.0000
  1371 H14     24.2913   2.3207  -4.0248   H         7 RES7   0.0000
  1372 N1      26.7799   6.2568  -1.4192   N.2       7 RES7   0.0000
  1373 N2      24.0419   5.0622  -0.3804   N.2       7 RES7   0.0000
  1374 N3      26.2362   6.3463   1.8154   N.2       7 RES7   0.0000
  1375 N4      26.7431   3.5412   0.5165   N.2       7 RES7   0.0000
  1376 Zn1     25.9503   5.3376   0.1303   Zn        7 RES7   0.0000
  1377 C1      15.6038  -0.6537  -2.4753   C.2       7 RES7   0.0000
  1378 H1      16.1199  -1.4242  -2.5431   H         7 RES7   0.0000
  1379 C2      14.7314   1.1521  -1.6856   C.2       7 RES7   0.0000
  1380 C3      14.3670   2.2650  -0.9636   C.2       7 RES7   0.0000
  1381 H3      14.7428   2.4501  -0.1345   H         7 RES7   0.0000
  1382 C4      13.4198   3.0852  -1.5185   C.2       7 RES7   0.0000
  1383 H4      13.1451   3.8398  -1.0503   H         7 RES7   0.0000
  1384 C5      12.8497   2.8185  -2.7906   C.2       7 RES7   0.0000
  1385 H5      12.2072   3.3978  -3.1342   H         7 RES7   0.0000
  1386 C6      15.1394  -1.4461   2.3056   C.2       7 RES7   0.0000
  1387 C7      14.8819  -2.6804   1.7350   C.2       7 RES7   0.0000
  1388 H7      15.2095  -2.9054   0.8932   H         7 RES7   0.0000
  1389 C8      18.2153   2.6313  -0.1014   C.2       7 RES7   0.0000
  1390 H8      17.7107   2.8603  -0.8470   H         7 RES7   0.0000
  1391 C9      18.9671   1.5204   1.5332   C.2       7 RES7   0.0000
  1392 C10     19.2625   0.5867   2.5736   C.2       7 RES7   0.0000
  1393 H10     18.7947  -0.2117   2.6414   H         7 RES7   0.0000
  1394 C11     18.9671  -1.5456  -1.4712   C.2       7 RES7   0.0000
  1395 C12     19.1832  -0.4745  -2.4138   C.2       7 RES7   0.0000
  1396 H12     18.7050   0.3219  -2.3666   H         7 RES7   0.0000
  1397 C13     20.2430   0.8913   3.4610   C.2       7 RES7   0.0000
  1398 H13     20.4476   0.2781   4.1294   H         7 RES7   0.0000
  1399 C14     20.1441  -0.6975  -3.4022   C.2       7 RES7   0.0000
  1400 H14     20.3280  -0.0325  -4.0248   H         7 RES7   0.0000
  1401 N1      15.6750   0.1546  -1.4192   N.2       7 RES7   0.0000
  1402 N2      18.0785  -1.6193  -0.3804   N.2       7 RES7   0.0000
  1403 N3      15.8693  -0.3610   1.8154   N.2       7 RES7   0.0000
  1404 N4      18.0452   1.4806   0.5165   N.2       7 RES7   0.0000
  1405 Zn1     16.8859  -0.1042   0.1303   Zn        7 RES7   0.0000
  1406 C1      18.7303   6.0689   2.4753   C.2       7 RES7   0.0000
  1407 H1      18.3211   5.2367   2.5431   H         7 RES7   0.0000
  1408 C2      19.8579   7.7274   1.6856   C.2       7 RES7   0.0000
  1409 C3      20.6395   8.5994   0.9636   C.2       7 RES7   0.0000
  1410 H3      20.9878   8.3664   0.1345   H         7 RES7   0.0000
  1411 C4      20.8763   9.8298   1.5185   C.2       7 RES7   0.0000
  1412 H4      21.3924  10.4450   1.0503   H         7 RES7   0.0000
  1413 C5      20.3602  10.1901   2.7906   C.2       7 RES7   0.0000
  1414 H5      20.5407  11.0363   3.1342   H         7 RES7   0.0000
  1415 C6      17.8119   6.0749  -2.3056   C.2       7 RES7   0.0000
  1416 C7      16.6142   5.6807  -1.7350   C.2       7 RES7   0.0000
  1417 H7      16.5831   5.2845  -0.8932   H         7 RES7   0.0000
  1418 C8      22.8810   5.4498   0.1014   C.2       7 RES7   0.0000
  1419 H8      22.8269   6.0013   0.8470   H         7 RES7   0.0000
  1420 C9      22.2947   4.2433  -1.5332   C.2       7 RES7   0.0000
  1421 C10     21.6338   3.5206  -2.5736   C.2       7 RES7   0.0000
  1422 H10     20.7085   3.5266  -2.6414   H         7 RES7   0.0000
  1423 C11     19.6395   2.7103   1.4712   C.2       7 RES7   0.0000
  1424 C12     20.6752   3.0587   2.4138   C.2       7 RES7   0.0000
  1425 H12     21.1257   3.8710   2.3666   H         7 RES7   0.0000
  1426 C13     22.3878   2.8238  -3.4610   C.2       7 RES7   0.0000
  1427 H13     21.9591   2.3400  -4.1294   H         7 RES7   0.0000
  1428 C14     20.9625   2.1150   3.4022   C.2       7 RES7   0.0000
  1429 H14     21.6304   2.2882   4.0248   H         7 RES7   0.0000
  1430 N1      19.4659   6.4114   1.4192   N.2       7 RES7   0.0000
  1431 N2      19.1314   3.4429   0.3804   N.2       7 RES7   0.0000
  1432 N3      19.1165   5.9853  -1.8154   N.2       7 RES7   0.0000
  1433 N4      21.7993   5.0217  -0.5165   N.2       7 RES7   0.0000
  1434 Zn1     19.8472   5.2334  -0.1303   Zn        7 RES7   0.0000
  1435 C1      15.7532   0.5674   2.7790   C.2       7 RES7   0.0000
  1436 C1      26.1155  -6.5501   2.7790   C.2       7 RES7   0.0000
  1437 C1      27.0983   5.9827   2.7790   C.2       7 RES7   0.0000
  1438 C1      30.2248  -0.5674  -2.7790   C.2       7 RES7   0.0000
  1439 C1      19.8625   6.5501  -2.7790   C.2       7 RES7   0.0000
  1440 C1      18.8797  -5.9827  -2.7790   C.2       7 RES7   0.0000
  1441 C2      14.6256  -1.0910   3.5687   C.2       7 RES7   0.0000
  1442 C2      28.1155  -6.6974   3.5687   C.2       7 RES7   0.0000
  1443 C2      26.2259   7.7884   3.5687   C.2       7 RES7   0.0000
  1444 C2      31.3524   1.0910  -3.5687   C.2       7 RES7   0.0000
  1445 C2      17.8625   6.6974  -3.5687   C.2       7 RES7   0.0000
  1446 C2      19.7521  -7.7884  -3.5687   C.2       7 RES7   0.0000
  1447 C5      14.1233  -3.5538   2.4638   C.2       7 RES7   0.0000
  1448 C5      30.4995  -5.9010   2.4638   C.2       7 RES7   0.0000
  1449 C5      24.3442   9.4548   2.4638   C.2       7 RES7   0.0000
  1450 C5      31.8547   3.5538  -2.4638   C.2       7 RES7   0.0000
  1451 C5      15.4785   5.9010  -2.4638   C.2       7 RES7   0.0000
  1452 C5      21.6338  -9.4548  -2.4638   C.2       7 RES7   0.0000
  1453 C6      28.1661   7.1978  -2.9487   C.2       7 RES7   0.0000
  1454 C6      14.1670   0.8846  -2.9487   C.2       7 RES7   0.0000
  1455 C6      26.6339  -8.0824  -2.9487   C.2       7 RES7   0.0000
  1456 C6      17.8119  -7.1978   2.9487   C.2       7 RES7   0.0000
  1457 C6      31.8110  -0.8846   2.9487   C.2       7 RES7   0.0000
  1458 C6      19.3441   8.0824   2.9487   C.2       7 RES7   0.0000
  1459 C7      29.3638   7.5920  -3.5194   C.2       7 RES7   0.0000
  1460 C7      13.2267   1.7248  -3.5194   C.2       7 RES7   0.0000
  1461 C7      26.3764  -9.3168  -3.5194   C.2       7 RES7   0.0000
  1462 C7      16.6142  -7.5920   3.5194   C.2       7 RES7   0.0000
  1463 C7      32.7513  -1.7248   3.5194   C.2       7 RES7   0.0000
  1464 C7      19.6016   9.3168   3.5194   C.2       7 RES7   0.0000
  1465 N3      26.8615   7.2874  -3.4390   N.2       7 RES7   0.0000
  1466 N3      14.7417  -0.2900  -3.4390   N.2       7 RES7   0.0000
  1467 N3      27.3638  -6.9974  -3.4390   N.2       7 RES7   0.0000
  1468 N3      19.1165  -7.2874   3.4390   N.2       7 RES7   0.0000
  1469 N3      31.2363   0.2900   3.4390   N.2       7 RES7   0.0000
  1470 N3      18.6142   6.9974   3.4390   N.2       7 RES7   0.0000
  1471 C1      27.2477  -6.0689  13.2877   C.2       8 RES8   0.0000
  1472 H1      27.6569  -5.2367  13.2199   H         8 RES8   0.0000
  1473 C2      26.1201  -7.7274  14.0774   C.2       8 RES8   0.0000
  1474 C3      25.3385  -8.5994  14.7994   C.2       8 RES8   0.0000
  1475 H3      24.9902  -8.3664  15.6285   H         8 RES8   0.0000
  1476 C4      25.1017  -9.8298  14.2445   C.2       8 RES8   0.0000
  1477 H4      24.5856 -10.4450  14.7127   H         8 RES8   0.0000
  1478 C5      25.6178 -10.1901  12.9724   C.2       8 RES8   0.0000
  1479 H5      25.4373 -11.0363  12.6288   H         8 RES8   0.0000
  1480 C6      28.1661  -6.0749  18.0686   C.2       8 RES8   0.0000
  1481 C7      29.3638  -5.6807  17.4980   C.2       8 RES8   0.0000
  1482 H7      29.3949  -5.2845  16.6562   H         8 RES8   0.0000
  1483 C8      23.0970  -5.4498  15.6616   C.2       8 RES8   0.0000
  1484 H8      23.1511  -6.0013  14.9160   H         8 RES8   0.0000
  1485 C9      23.6833  -4.2433  17.2962   C.2       8 RES8   0.0000
  1486 C10     24.3442  -3.5206  18.3366   C.2       8 RES8   0.0000
  1487 H10     25.2695  -3.5266  18.4044   H         8 RES8   0.0000
  1488 C11     26.3385  -2.7103  14.2918   C.2       8 RES8   0.0000
  1489 C12     25.3028  -3.0587  13.3492   C.2       8 RES8   0.0000
  1490 H12     24.8523  -3.8710  13.3964   H         8 RES8   0.0000
  1491 C13     23.5902  -2.8238  19.2240   C.2       8 RES8   0.0000
  1492 H13     24.0189  -2.3400  19.8924   H         8 RES8   0.0000
  1493 C14     25.0155  -2.1150  12.3608   C.2       8 RES8   0.0000
  1494 H14     24.3476  -2.2882  11.7382   H         8 RES8   0.0000
  1495 N1      26.5121  -6.4114  14.3438   N.2       8 RES8   0.0000
  1496 N2      26.8466  -3.4429  15.3826   N.2       8 RES8   0.0000
  1497 N3      26.8615  -5.9853  17.5784   N.2       8 RES8   0.0000
  1498 N4      24.1787  -5.0217  16.2795   N.2       8 RES8   0.0000
  1499 Zn1     26.1308  -5.2334  15.8933   Zn        8 RES8   0.0000
  1500 C1      19.8625  -6.7226  18.2383   C.2       8 RES8   0.0000
  1501 H1      20.7878  -6.6609  18.3061   H         8 RES8   0.0000
  1502 C2      17.8625  -6.5753  17.4486   C.2       8 RES8   0.0000
  1503 C3      16.7165  -6.3344  16.7266   C.2       8 RES8   0.0000
  1504 H3      16.7440  -5.9163  15.8975   H         8 RES8   0.0000
  1505 C4      15.5325  -6.7445  17.2815   C.2       8 RES8   0.0000
  1506 H4      14.7417  -6.6052  16.8133   H         8 RES8   0.0000
  1507 C5      15.4785  -7.3717  18.5536   C.2       8 RES8   0.0000
  1508 H5      14.6555  -7.6384  18.8972   H         8 RES8   0.0000
  1509 C6      20.3165  -7.5210  13.4574   C.2       8 RES8   0.0000
  1510 C7      21.2568  -8.3611  14.0280   C.2       8 RES8   0.0000
  1511 H7      21.6154  -8.1899  14.8698   H         8 RES8   0.0000
  1512 C8      18.3234  -2.8185  15.8644   C.2       8 RES8   0.0000
  1513 H8      17.8728  -3.1410  16.6100   H         8 RES8   0.0000
  1514 C9      19.6613  -2.7229  14.2298   C.2       8 RES8   0.0000
  1515 C10     20.6177  -2.9339  13.1894   C.2       8 RES8   0.0000
  1516 H10     21.0752  -3.7383  13.1216   H         8 RES8   0.0000
  1517 C11     22.3166  -4.2559  17.2342   C.2       8 RES8   0.0000
  1518 C12     21.4970  -3.5332  18.1768   C.2       8 RES8   0.0000
  1519 H12     20.5683  -3.5491  18.1296   H         8 RES8   0.0000
  1520 C13     20.8441  -1.9325  12.3020   C.2       8 RES8   0.0000
  1521 H13     21.4775  -2.0619  11.6336   H         8 RES8   0.0000
  1522 C14     22.1706  -2.8125  19.1652   C.2       8 RES8   0.0000
  1523 H14     21.6867  -2.3207  19.7878   H         8 RES8   0.0000
  1524 N1      19.1981  -6.2568  17.1822   N.2       8 RES8   0.0000
  1525 N2      21.9361  -5.0622  16.1434   N.2       8 RES8   0.0000
  1526 N3      19.7418  -6.3463  13.9476   N.2       8 RES8   0.0000
  1527 N4      19.2349  -3.5412  15.2465   N.2       8 RES8   0.0000
  1528 Zn1     20.0277  -5.3376  15.6327   Zn        8 RES8   0.0000
  1529 C1      30.3742   0.6537  18.2383   C.2       8 RES8   0.0000
  1530 H1      29.8581   1.4242  18.3061   H         8 RES8   0.0000
  1531 C2      31.2466  -1.1521  17.4486   C.2       8 RES8   0.0000
  1532 C3      31.6110  -2.2650  16.7266   C.2       8 RES8   0.0000
  1533 H3      31.2352  -2.4501  15.8975   H         8 RES8   0.0000
  1534 C4      32.5582  -3.0852  17.2815   C.2       8 RES8   0.0000
  1535 H4      32.8329  -3.8398  16.8133   H         8 RES8   0.0000
  1536 C5      33.1283  -2.8185  18.5536   C.2       8 RES8   0.0000
  1537 H5      33.7708  -3.3978  18.8972   H         8 RES8   0.0000
  1538 C6      30.8386   1.4461  13.4574   C.2       8 RES8   0.0000
  1539 C7      31.0961   2.6804  14.0280   C.2       8 RES8   0.0000
  1540 H7      30.7685   2.9054  14.8698   H         8 RES8   0.0000
  1541 C8      27.7627  -2.6313  15.8644   C.2       8 RES8   0.0000
  1542 H8      28.2673  -2.8603  16.6100   H         8 RES8   0.0000
  1543 C9      27.0109  -1.5204  14.2298   C.2       8 RES8   0.0000
  1544 C10     26.7155  -0.5867  13.1894   C.2       8 RES8   0.0000
  1545 H10     27.1833   0.2117  13.1216   H         8 RES8   0.0000
  1546 C11     27.0109   1.5456  17.2342   C.2       8 RES8   0.0000
  1547 C12     26.7948   0.4745  18.1768   C.2       8 RES8   0.0000
  1548 H12     27.2730  -0.3219  18.1296   H         8 RES8   0.0000
  1549 C13     25.7350  -0.8913  12.3020   C.2       8 RES8   0.0000
  1550 H13     25.5304  -0.2781  11.6336   H         8 RES8   0.0000
  1551 C14     25.8339   0.6975  19.1652   C.2       8 RES8   0.0000
  1552 H14     25.6500   0.0325  19.7878   H         8 RES8   0.0000
  1553 N1      30.3030  -0.1546  17.1822   N.2       8 RES8   0.0000
  1554 N2      27.8995   1.6193  16.1434   N.2       8 RES8   0.0000
  1555 N3      30.1087   0.3610  13.9476   N.2       8 RES8   0.0000
  1556 N4      27.9328  -1.4806  15.2465   N.2       8 RES8   0.0000
  1557 Zn1     29.0921   0.1042  15.6327   Zn        8 RES8   0.0000
  1558 C1      26.1155   6.7226  13.2877   C.2       8 RES8   0.0000
  1559 H1      25.1902   6.6609  13.2199   H         8 RES8   0.0000
  1560 C2      28.1155   6.5753  14.0774   C.2       8 RES8   0.0000
  1561 C3      29.2615   6.3344  14.7994   C.2       8 RES8   0.0000
  1562 H3      29.2340   5.9163  15.6285   H         8 RES8   0.0000
  1563 C4      30.4455   6.7445  14.2445   C.2       8 RES8   0.0000
  1564 H4      31.2363   6.6052  14.7127   H         8 RES8   0.0000
  1565 C5      30.4995   7.3717  12.9724   C.2       8 RES8   0.0000
  1566 H5      31.3225   7.6384  12.6288   H         8 RES8   0.0000
  1567 C6      25.6615   7.5210  18.0686   C.2       8 RES8   0.0000
  1568 C7      24.7212   8.3611  17.4980   C.2       8 RES8   0.0000
  1569 H7      24.3626   8.1899  16.6562   H         8 RES8   0.0000
  1570 C8      27.6546   2.8185  15.6616   C.2       8 RES8   0.0000
  1571 H8      28.1052   3.1410  14.9160   H         8 RES8   0.0000
  1572 C9      26.3167   2.7229  17.2962   C.2       8 RES8   0.0000
  1573 C10     25.3603   2.9339  18.3366   C.2       8 RES8   0.0000
  1574 H10     24.9028   3.7383  18.4044   H         8 RES8   0.0000
  1575 C11     23.6614   4.2559  14.2918   C.2       8 RES8   0.0000
  1576 C12     24.4810   3.5332  13.3492   C.2       8 RES8   0.0000
  1577 H12     25.4097   3.5491  13.3964   H         8 RES8   0.0000
  1578 C13     25.1339   1.9325  19.2240   C.2       8 RES8   0.0000
  1579 H13     24.5005   2.0619  19.8924   H         8 RES8   0.0000
  1580 C14     23.8074   2.8125  12.3608   C.2       8 RES8   0.0000
  1581 H14     24.2913   2.3207  11.7382   H         8 RES8   0.0000
  1582 N1      26.7799   6.2568  14.3438   N.2       8 RES8   0.0000
  1583 N2      24.0419   5.0622  15.3826   N.2       8 RES8   0.0000
  1584 N3      26.2362   6.3463  17.5784   N.2       8 RES8   0.0000
  1585 N4      26.7431   3.5412  16.2795   N.2       8 RES8   0.0000
  1586 Zn1     25.9503   5.3376  15.8933   Zn        8 RES8   0.0000
  1587 C1      15.6038  -0.6537  13.2877   C.2       8 RES8   0.0000
  1588 H1      16.1199  -1.4242  13.2199   H         8 RES8   0.0000
  1589 C2      14.7314   1.1521  14.0774   C.2       8 RES8   0.0000
  1590 C3      14.3670   2.2650  14.7994   C.2       8 RES8   0.0000
  1591 H3      14.7428   2.4501  15.6285   H         8 RES8   0.0000
  1592 C4      13.4198   3.0852  14.2445   C.2       8 RES8   0.0000
  1593 H4      13.1451   3.8398  14.7127   H         8 RES8   0.0000
  1594 C5      12.8497   2.8185  12.9724   C.2       8 RES8   0.0000
  1595 H5      12.2072   3.3978  12.6288   H         8 RES8   0.0000
  1596 C6      15.1394  -1.4461  18.0686   C.2       8 RES8   0.0000
  1597 C7      14.8819  -2.6804  17.4980   C.2       8 RES8   0.0000
  1598 H7      15.2095  -2.9054  16.6562   H         8 RES8   0.0000
  1599 C8      18.2153   2.6313  15.6616   C.2       8 RES8   0.0000
  1600 H8      17.7107   2.8603  14.9160   H         8 RES8   0.0000
  1601 C9      18.9671   1.5204  17.2962   C.2       8 RES8   0.0000
  1602 C10     19.2625   0.5867  18.3366   C.2       8 RES8   0.0000
  1603 H10     18.7947  -0.2117  18.4044   H         8 RES8   0.0000
  1604 C11     18.9671  -1.5456  14.2918   C.2       8 RES8   0.0000
  1605 C12     19.1832  -0.4745  13.3492   C.2       8 RES8   0.0000
  1606 H12     18.7050   0.3219  13.3964   H         8 RES8   0.0000
  1607 C13     20.2430   0.8913  19.2240   C.2       8 RES8   0.0000
  1608 H13     20.4476   0.2781  19.8924   H         8 RES8   0.0000
  1609 C14     20.1441  -0.6975  12.3608   C.2       8 RES8   0.0000
  1610 H14     20.3280  -0.0325  11.7382   H         8 RES8   0.0000
  1611 N1      15.6750   0.1546  14.3438   N.2       8 RES8   0.0000
  1612 N2      18.0785  -1.6193  15.3826   N.2       8 RES8   0.0000
  1613 N3      15.8693  -0.3610  17.5784   N.2       8 RES8   0.0000
  1614 N4      18.0452   1.4806  16.2795   N.2       8 RES8   0.0000
  1615 Zn1     16.8859  -0.1042  15.8933   Zn        8 RES8   0.0000
  1616 C1      18.7303   6.0689  18.2383   C.2       8 RES8   0.0000
  1617 H1      18.3211   5.2367  18.3061   H         8 RES8   0.0000
  1618 C2      19.8579   7.7274  17.4486   C.2       8 RES8   0.0000
  1619 C3      20.6395   8.5994  16.7266   C.2       8 RES8   0.0000
  1620 H3      20.9878   8.3664  15.8975   H         8 RES8   0.0000
  1621 C4      20.8763   9.8298  17.2815   C.2       8 RES8   0.0000
  1622 H4      21.3924  10.4450  16.8133   H         8 RES8   0.0000
  1623 C5      20.3602  10.1901  18.5536   C.2       8 RES8   0.0000
  1624 H5      20.5407  11.0363  18.8972   H         8 RES8   0.0000
  1625 C6      17.8119   6.0749  13.4574   C.2       8 RES8   0.0000
  1626 C7      16.6142   5.6807  14.0280   C.2       8 RES8   0.0000
  1627 H7      16.5831   5.2845  14.8698   H         8 RES8   0.0000
  1628 C8      22.8810   5.4498  15.8644   C.2       8 RES8   0.0000
  1629 H8      22.8269   6.0013  16.6100   H         8 RES8   0.0000
  1630 C9      22.2947   4.2433  14.2298   C.2       8 RES8   0.0000
  1631 C10     21.6338   3.5206  13.1894   C.2       8 RES8   0.0000
  1632 H10     20.7085   3.5266  13.1216   H         8 RES8   0.0000
  1633 C11     19.6395   2.7103  17.2342   C.2       8 RES8   0.0000
  1634 C12     20.6752   3.0587  18.1768   C.2       8 RES8   0.0000
  1635 H12     21.1257   3.8710  18.1296   H         8 RES8   0.0000
  1636 C13     22.3878   2.8238  12.3020   C.2       8 RES8   0.0000
  1637 H13     21.9591   2.3400  11.6336   H         8 RES8   0.0000
  1638 C14     20.9625   2.1150  19.1652   C.2       8 RES8   0.0000
  1639 H14     21.6304   2.2882  19.7878   H         8 RES8   0.0000
  1640 N1      19.4659   6.4114  17.1822   N.2       8 RES8   0.0000
  1641 N2      19.1314   3.4429  16.1434   N.2       8 RES8   0.0000
  1642 N3      19.1165   5.9853  13.9476   N.2       8 RES8   0.0000
  1643 N4      21.7993   5.0217  15.2465   N.2       8 RES8   0.0000
  1644 Zn1     19.8472   5.2334  15.6327   Zn        8 RES8   0.0000
  1645 C1      15.7532   0.5674  18.5420   C.2       8 RES8   0.0000
  1646 C1      26.1155  -6.5501  18.5420   C.2       8 RES8   0.0000
  1647 C1      27.0983   5.9827  18.5420   C.2       8 RES8   0.0000
  1648 C1      30.2248  -0.5674  12.9840   C.2       8 RES8   0.0000
  1649 C1      19.8625   6.5501  12.9840   C.2       8 RES8   0.0000
  1650 C1      18.8797  -5.9827  12.9840   C.2       8 RES8   0.0000
  1651 C2      14.6256  -1.0910  19.3317   C.2       8 RES8   0.0000
  1652 C2      28.1155  -6.6974  19.3317   C.2       8 RES8   0.0000
  1653 C2      26.2259   7.7884  19.3317   C.2       8 RES8   0.0000
  1654 C2      31.3524   1.0910  12.1943   C.2       8 RES8   0.0000
  1655 C2      17.8625   6.6974  12.1943   C.2       8 RES8   0.0000
  1656 C2      19.7521  -7.7884  12.1943   C.2       8 RES8   0.0000
  1657 C5      14.1233  -3.5538  18.2268   C.2       8 RES8   0.0000
  1658 C5      30.4995  -5.9010  18.2268   C.2       8 RES8   0.0000
  1659 C5      24.3442   9.4548  18.2268   C.2       8 RES8   0.0000
  1660 C5      31.8547   3.5538  13.2992   C.2       8 RES8   0.0000
  1661 C5      15.4785   5.9010  13.2992   C.2       8 RES8   0.0000
  1662 C5      21.6338  -9.4548  13.2992   C.2       8 RES8   0.0000
  1663 C6      28.1661   7.1978  12.8143   C.2       8 RES8   0.0000
  1664 C6      14.1670   0.8846  12.8143   C.2       8 RES8   0.0000
  1665 C6      26.6339  -8.0824  12.8143   C.2       8 RES8   0.0000
  1666 C6      17.8119  -7.1978  18.7117   C.2       8 RES8   0.0000
  1667 C6      31.8110  -0.8846  18.7117   C.2       8 RES8   0.0000
  1668 C6      19.3441   8.0824  18.7117   C.2       8 RES8   0.0000
  1669 C7      29.3638   7.5920  12.2436   C.2       8 RES8   0.0000
  1670 C7      13.2267   1.7248  12.2436   C.2       8 RES8   0.0000
  1671 C7      26.3764  -9.3168  12.2436   C.2       8 RES8   0.0000
  1672 C7      16.6142  -7.5920  19.2824   C.2       8 RES8   0.0000
  1673 C7      32.7513  -1.7248  19.2824   C.2       8 RES8   0.0000
  1674 C7      19.6016   9.3168  19.2824   C.2       8 RES8   0.0000
  1675 N3      26.8615   7.2874  12.3240   N.2       8 RES8   0.0000
  1676 N3      14.7417  -0.2900  12.3240   N.2       8 RES8   0.0000
  1677 N3      27.3638  -6.9974  12.3240   N.2       8 RES8   0.0000
  1678 N3      19.1165  -7.2874  19.2020   N.2       8 RES8   0.0000
  1679 N3      31.2363   0.2900  19.2020   N.2       8 RES8   0.0000
  1680 N3      18.6142   6.9974  19.2020   N.2       8 RES8   0.0000
  1681 C1      15.7532  13.8401  -2.4753   C.2       9 RES9   0.0000
  1682 H1      16.1624  14.6723  -2.5431   H         9 RES9   0.0000
  1683 C2      14.6256  12.1817  -1.6856   C.2       9 RES9   0.0000
  1684 C3      13.8440  11.3097  -0.9636   C.2       9 RES9   0.0000
  1685 H3      13.4957  11.5426  -0.1345   H         9 RES9   0.0000
  1686 C4      13.6072  10.0793  -1.5185   C.2       9 RES9   0.0000
  1687 H4      13.0911   9.4641  -1.0503   H         9 RES9   0.0000
  1688 C5      14.1233   9.7189  -2.7906   C.2       9 RES9   0.0000
  1689 H5      13.9428   8.8728  -3.1342   H         9 RES9   0.0000
  1690 C6      16.6716  13.8341   2.3056   C.2       9 RES9   0.0000
  1691 C7      17.8693  14.2283   1.7350   C.2       9 RES9   0.0000
  1692 H7      17.9004  14.6245   0.8932   H         9 RES9   0.0000
  1693 C8      11.6025  14.4593  -0.1014   C.2       9 RES9   0.0000
  1694 H8      11.6566  13.9078  -0.8470   H         9 RES9   0.0000
  1695 C9      12.1888  15.6658   1.5332   C.2       9 RES9   0.0000
  1696 C10     12.8497  16.3885   2.5736   C.2       9 RES9   0.0000
  1697 H10     13.7750  16.3825   2.6414   H         9 RES9   0.0000
  1698 C11     14.8440  17.1988  -1.4712   C.2       9 RES9   0.0000
  1699 C12     13.8083  16.8504  -2.4138   C.2       9 RES9   0.0000
  1700 H12     13.3578  16.0381  -2.3666   H         9 RES9   0.0000
  1701 C13     12.0957  17.0853   3.4610   C.2       9 RES9   0.0000
  1702 H13     12.5244  17.5691   4.1294   H         9 RES9   0.0000
  1703 C14     13.5210  17.7941  -3.4022   C.2       9 RES9   0.0000
  1704 H14     12.8531  17.6208  -4.0248   H         9 RES9   0.0000
  1705 N1      15.0176  13.4977  -1.4192   N.2       9 RES9   0.0000
  1706 N2      15.3521  16.4661  -0.3804   N.2       9 RES9   0.0000
  1707 N3      15.3670  13.9237   1.8154   N.2       9 RES9   0.0000
  1708 N4      12.6842  14.8873   0.5165   N.2       9 RES9   0.0000
  1709 Zn1     14.6363  14.6757   0.1303   Zn        9 RES9   0.0000
  1710 C1       8.3680  13.1864   2.4753   C.2       9 RES9   0.0000
  1711 H1       9.2933  13.2482   2.5431   H         9 RES9   0.0000
  1712 C2       6.3680  13.3338   1.6856   C.2       9 RES9   0.0000
  1713 C3       5.2220  13.5747   0.9636   C.2       9 RES9   0.0000
  1714 H3       5.2495  13.9927   0.1345   H         9 RES9   0.0000
  1715 C4       4.0380  13.1645   1.5185   C.2       9 RES9   0.0000
  1716 H4       3.2472  13.3039   1.0503   H         9 RES9   0.0000
  1717 C5       3.9840  12.5374   2.7906   C.2       9 RES9   0.0000
  1718 H5       3.1610  12.2706   3.1342   H         9 RES9   0.0000
  1719 C6       8.8220  12.3881  -2.3056   C.2       9 RES9   0.0000
  1720 C7       9.7623  11.5479  -1.7350   C.2       9 RES9   0.0000
  1721 H7      10.1209  11.7191  -0.8932   H         9 RES9   0.0000
  1722 C8       6.8289  17.0906   0.1014   C.2       9 RES9   0.0000
  1723 H8       6.3783  16.7681   0.8470   H         9 RES9   0.0000
  1724 C9       8.1668  17.1862  -1.5332   C.2       9 RES9   0.0000
  1725 C10      9.1232  16.9751  -2.5736   C.2       9 RES9   0.0000
  1726 H10      9.5807  16.1708  -2.6414   H         9 RES9   0.0000
  1727 C11     10.8221  15.6532   1.4712   C.2       9 RES9   0.0000
  1728 C12     10.0025  16.3759   2.4138   C.2       9 RES9   0.0000
  1729 H12      9.0738  16.3599   2.3666   H         9 RES9   0.0000
  1730 C13      9.3496  17.9766  -3.4610   C.2       9 RES9   0.0000
  1731 H13      9.9830  17.8471  -4.1294   H         9 RES9   0.0000
  1732 C14     10.6761  17.0966   3.4022   C.2       9 RES9   0.0000
  1733 H14     10.1922  17.5883   4.0248   H         9 RES9   0.0000
  1734 N1       7.7036  13.6523   1.4192   N.2       9 RES9   0.0000
  1735 N2      10.4416  14.8468   0.3804   N.2       9 RES9   0.0000
  1736 N3       8.2473  13.5627  -1.8154   N.2       9 RES9   0.0000
  1737 N4       7.7404  16.3679  -0.5165   N.2       9 RES9   0.0000
  1738 Zn1      8.5332  14.5715  -0.1303   Zn        9 RES9   0.0000
  1739 C1      18.8797  20.5627   2.4753   C.2       9 RES9   0.0000
  1740 H1      18.3636  21.3332   2.5431   H         9 RES9   0.0000
  1741 C2      19.7521  18.7570   1.6856   C.2       9 RES9   0.0000
  1742 C3      20.1165  17.6441   0.9636   C.2       9 RES9   0.0000
  1743 H3      19.7407  17.4589   0.1345   H         9 RES9   0.0000
  1744 C4      21.0637  16.8238   1.5185   C.2       9 RES9   0.0000
  1745 H4      21.3384  16.0693   1.0503   H         9 RES9   0.0000
  1746 C5      21.6338  17.0906   2.7906   C.2       9 RES9   0.0000
  1747 H5      22.2763  16.5112   3.1342   H         9 RES9   0.0000
  1748 C6      19.3441  21.3551  -2.3056   C.2       9 RES9   0.0000
  1749 C7      19.6016  22.5895  -1.7350   C.2       9 RES9   0.0000
  1750 H7      19.2740  22.8145  -0.8932   H         9 RES9   0.0000
  1751 C8      16.2682  17.2777   0.1014   C.2       9 RES9   0.0000
  1752 H8      16.7728  17.0488   0.8470   H         9 RES9   0.0000
  1753 C9      15.5164  18.3887  -1.5332   C.2       9 RES9   0.0000
  1754 C10     15.2210  19.3224  -2.5736   C.2       9 RES9   0.0000
  1755 H10     15.6888  20.1208  -2.6414   H         9 RES9   0.0000
  1756 C11     15.5164  21.4547   1.4712   C.2       9 RES9   0.0000
  1757 C12     15.3003  20.3836   2.4138   C.2       9 RES9   0.0000
  1758 H12     15.7785  19.5872   2.3666   H         9 RES9   0.0000
  1759 C13     14.2405  19.0178  -3.4610   C.2       9 RES9   0.0000
  1760 H13     14.0359  19.6310  -4.1294   H         9 RES9   0.0000
  1761 C14     14.3394  20.6065   3.4022   C.2       9 RES9   0.0000
  1762 H14     14.1555  19.9416   4.0248   H         9 RES9   0.0000
  1763 N1      18.8085  19.7544   1.4192   N.2       9 RES9   0.0000
  1764 N2      16.4050  21.5283   0.3804   N.2       9 RES9   0.0000
  1765 N3      18.6142  20.2701  -1.8154   N.2       9 RES9   0.0000
  1766 N4      16.4383  18.4285  -0.5165   N.2       9 RES9   0.0000
  1767 Zn1     17.5976  20.0132  -0.1303   Zn        9 RES9   0.0000
  1768 C1      14.6210  26.6317  -2.4753   C.2       9 RES9   0.0000
  1769 H1      13.6957  26.5700  -2.5431   H         9 RES9   0.0000
  1770 C2      16.6210  26.4844  -1.6856   C.2       9 RES9   0.0000
  1771 C3      17.7670  26.2435  -0.9636   C.2       9 RES9   0.0000
  1772 H3      17.7395  25.8254  -0.1345   H         9 RES9   0.0000
  1773 C4      18.9510  26.6536  -1.5185   C.2       9 RES9   0.0000
  1774 H4      19.7418  26.5142  -1.0503   H         9 RES9   0.0000
  1775 C5      19.0050  27.2807  -2.7906   C.2       9 RES9   0.0000
  1776 H5      19.8280  27.5475  -3.1342   H         9 RES9   0.0000
  1777 C6      14.1670  27.4300   2.3056   C.2       9 RES9   0.0000
  1778 C7      13.2267  28.2702   1.7350   C.2       9 RES9   0.0000
  1779 H7      12.8681  28.0990   0.8932   H         9 RES9   0.0000
  1780 C8      16.1601  22.7275  -0.1014   C.2       9 RES9   0.0000
  1781 H8      16.6107  23.0500  -0.8470   H         9 RES9   0.0000
  1782 C9      14.8222  22.6320   1.5332   C.2       9 RES9   0.0000
  1783 C10     13.8658  22.8430   2.5736   C.2       9 RES9   0.0000
  1784 H10     13.4083  23.6473   2.6414   H         9 RES9   0.0000
  1785 C11     12.1669  24.1650  -1.4712   C.2       9 RES9   0.0000
  1786 C12     12.9865  23.4423  -2.4138   C.2       9 RES9   0.0000
  1787 H12     13.9152  23.4582  -2.3666   H         9 RES9   0.0000
  1788 C13     13.6394  21.8416   3.4610   C.2       9 RES9   0.0000
  1789 H13     13.0060  21.9710   4.1294   H         9 RES9   0.0000
  1790 C14     12.3129  22.7215  -3.4022   C.2       9 RES9   0.0000
  1791 H14     12.7968  22.2298  -4.0248   H         9 RES9   0.0000
  1792 N1      15.2854  26.1658  -1.4192   N.2       9 RES9   0.0000
  1793 N2      12.5474  24.9713  -0.3804   N.2       9 RES9   0.0000
  1794 N3      14.7417  26.2554   1.8154   N.2       9 RES9   0.0000
  1795 N4      15.2486  23.4502   0.5165   N.2       9 RES9   0.0000
  1796 Zn1     14.4558  25.2466   0.1303   Zn        9 RES9   0.0000
  1797 C1       4.1093  19.2554  -2.4753   C.2       9 RES9   0.0000
  1798 H1       4.6254  18.4849  -2.5431   H         9 RES9   0.0000
  1799 C2       3.2369  21.0611  -1.6856   C.2       9 RES9   0.0000
  1800 C3       2.8725  22.1740  -0.9636   C.2       9 RES9   0.0000
  1801 H3       3.2483  22.3592  -0.1345   H         9 RES9   0.0000
  1802 C4       1.9253  22.9943  -1.5185   C.2       9 RES9   0.0000
  1803 H4       1.6506  23.7489  -1.0503   H         9 RES9   0.0000
  1804 C5       1.3552  22.7275  -2.7906   C.2       9 RES9   0.0000
  1805 H5       0.7127  23.3069  -3.1342   H         9 RES9   0.0000
  1806 C6       3.6449  18.4630   2.3056   C.2       9 RES9   0.0000
  1807 C7       3.3874  17.2286   1.7350   C.2       9 RES9   0.0000
  1808 H7       3.7150  17.0037   0.8932   H         9 RES9   0.0000
  1809 C8       6.7208  22.5404  -0.1014   C.2       9 RES9   0.0000
  1810 H8       6.2162  22.7693  -0.8470   H         9 RES9   0.0000
  1811 C9       7.4726  21.4294   1.5332   C.2       9 RES9   0.0000
  1812 C10      7.7680  20.4957   2.5736   C.2       9 RES9   0.0000
  1813 H10      7.3002  19.6974   2.6414   H         9 RES9   0.0000
  1814 C11      7.4726  18.3635  -1.4712   C.2       9 RES9   0.0000
  1815 C12      7.6887  19.4346  -2.4138   C.2       9 RES9   0.0000
  1816 H12      7.2105  20.2309  -2.3666   H         9 RES9   0.0000
  1817 C13      8.7485  20.8003   3.4610   C.2       9 RES9   0.0000
  1818 H13      8.9531  20.1871   4.1294   H         9 RES9   0.0000
  1819 C14      8.6496  19.2116  -3.4022   C.2       9 RES9   0.0000
  1820 H14      8.8335  19.8765  -4.0248   H         9 RES9   0.0000
  1821 N1       4.1805  20.0637  -1.4192   N.2       9 RES9   0.0000
  1822 N2       6.5840  18.2898  -0.3804   N.2       9 RES9   0.0000
  1823 N3       4.3748  19.5480   1.8154   N.2       9 RES9   0.0000
  1824 N4       6.5507  21.3896   0.5165   N.2       9 RES9   0.0000
  1825 Zn1      5.3914  19.8049   0.1303   Zn        9 RES9   0.0000
  1826 C1       7.2358  25.9780   2.4753   C.2       9 RES9   0.0000
  1827 H1       6.8266  25.1458   2.5431   H         9 RES9   0.0000
  1828 C2       8.3634  27.6364   1.6856   C.2       9 RES9   0.0000
  1829 C3       9.1450  28.5084   0.9636   C.2       9 RES9   0.0000
  1830 H3       9.4933  28.2755   0.1345   H         9 RES9   0.0000
  1831 C4       9.3818  29.7388   1.5185   C.2       9 RES9   0.0000
  1832 H4       9.8979  30.3540   1.0503   H         9 RES9   0.0000
  1833 C5       8.8657  30.0992   2.7906   C.2       9 RES9   0.0000
  1834 H5       9.0462  30.9453   3.1342   H         9 RES9   0.0000
  1835 C6       6.3174  25.9840  -2.3056   C.2       9 RES9   0.0000
  1836 C7       5.1197  25.5898  -1.7350   C.2       9 RES9   0.0000
  1837 H7       5.0886  25.1936  -0.8932   H         9 RES9   0.0000
  1838 C8      11.3865  25.3588   0.1014   C.2       9 RES9   0.0000
  1839 H8      11.3324  25.9103   0.8470   H         9 RES9   0.0000
  1840 C9      10.8002  24.1523  -1.5332   C.2       9 RES9   0.0000
  1841 C10     10.1393  23.4296  -2.5736   C.2       9 RES9   0.0000
  1842 H10      9.2140  23.4356  -2.6414   H         9 RES9   0.0000
  1843 C11      8.1450  22.6193   1.4712   C.2       9 RES9   0.0000
  1844 C12      9.1807  22.9678   2.4138   C.2       9 RES9   0.0000
  1845 H12      9.6312  23.7800   2.3666   H         9 RES9   0.0000
  1846 C13     10.8933  22.7328  -3.4610   C.2       9 RES9   0.0000
  1847 H13     10.4646  22.2490  -4.1294   H         9 RES9   0.0000
  1848 C14      9.4680  22.0241   3.4022   C.2       9 RES9   0.0000
  1849 H14     10.1359  22.1973   4.0248   H         9 RES9   0.0000
  1850 N1       7.9714  26.3204   1.4192   N.2       9 RES9   0.0000
  1851 N2       7.6369  23.3520   0.3804   N.2       9 RES9   0.0000
  1852 N3       7.6220  25.8944  -1.8154   N.2       9 RES9   0.0000
  1853 N4      10.3048  24.9308  -0.5165   N.2       9 RES9   0.0000
  1854 Zn1      8.3527  25.1424  -0.1303   Zn        9 RES9   0.0000
  1855 C1       4.2587  20.4765   2.7790   C.2       9 RES9   0.0000
  1856 C1      14.6210  13.3590   2.7790   C.2       9 RES9   0.0000
  1857 C1      15.6038  25.8917   2.7790   C.2       9 RES9   0.0000
  1858 C1      18.7303  19.3416  -2.7790   C.2       9 RES9   0.0000
  1859 C1       8.3680  26.4591  -2.7790   C.2       9 RES9   0.0000
  1860 C1       7.3852  13.9264  -2.7790   C.2       9 RES9   0.0000
  1861 C2       3.1311  18.8180   3.5687   C.2       9 RES9   0.0000
  1862 C2      16.6210  13.2117   3.5687   C.2       9 RES9   0.0000
  1863 C2      14.7314  27.6975   3.5687   C.2       9 RES9   0.0000
  1864 C2      19.8579  21.0001  -3.5687   C.2       9 RES9   0.0000
  1865 C2       6.3680  26.6065  -3.5687   C.2       9 RES9   0.0000
  1866 C2       8.2576  12.1206  -3.5687   C.2       9 RES9   0.0000
  1867 C5       2.6288  16.3553   2.4638   C.2       9 RES9   0.0000
  1868 C5      19.0050  14.0080   2.4638   C.2       9 RES9   0.0000
  1869 C5      12.8497  29.3639   2.4638   C.2       9 RES9   0.0000
  1870 C5      20.3602  23.4628  -2.4638   C.2       9 RES9   0.0000
  1871 C5       3.9840  25.8101  -2.4638   C.2       9 RES9   0.0000
  1872 C5      10.1393  10.4542  -2.4638   C.2       9 RES9   0.0000
  1873 C6      16.6716  27.1068  -2.9487   C.2       9 RES9   0.0000
  1874 C6       2.6725  20.7937  -2.9487   C.2       9 RES9   0.0000
  1875 C6      15.1394  11.8266  -2.9487   C.2       9 RES9   0.0000
  1876 C6       6.3174  12.7113   2.9487   C.2       9 RES9   0.0000
  1877 C6      20.3165  19.0244   2.9487   C.2       9 RES9   0.0000
  1878 C6       7.8496  27.9915   2.9487   C.2       9 RES9   0.0000
  1879 C7      17.8693  27.5010  -3.5194   C.2       9 RES9   0.0000
  1880 C7       1.7322  21.6338  -3.5194   C.2       9 RES9   0.0000
  1881 C7      14.8819  10.5923  -3.5194   C.2       9 RES9   0.0000
  1882 C7       5.1197  12.3171   3.5194   C.2       9 RES9   0.0000
  1883 C7      21.2568  18.1843   3.5194   C.2       9 RES9   0.0000
  1884 C7       8.1071  29.2258   3.5194   C.2       9 RES9   0.0000
  1885 N3      15.3670  27.1964  -3.4390   N.2       9 RES9   0.0000
  1886 N3       3.2472  19.6190  -3.4390   N.2       9 RES9   0.0000
  1887 N3      15.8693  12.9117  -3.4390   N.2       9 RES9   0.0000
  1888 N3       7.6220  12.6217   3.4390   N.2       9 RES9   0.0000
  1889 N3      19.7418  20.1991   3.4390   N.2       9 RES9   0.0000
  1890 N3       7.1197  26.9064   3.4390   N.2       9 RES9   0.0000
  1891 C1      15.7532  13.8401  13.2877   C.2      10 RES10   0.0000
  1892 H1      16.1624  14.6723  13.2199   H        10 RES10   0.0000
  1893 C2      14.6256  12.1817  14.0774   C.2      10 RES10   0.0000
  1894 C3      13.8440  11.3097  14.7994   C.2      10 RES10   0.0000
  1895 H3      13.4957  11.5426  15.6285   H        10 RES10   0.0000
  1896 C4      13.6072  10.0793  14.2445   C.2      10 RES10   0.0000
  1897 H4      13.0911   9.4641  14.7127   H        10 RES10   0.0000
  1898 C5      14.1233   9.7189  12.9724   C.2      10 RES10   0.0000
  1899 H5      13.9428   8.8728  12.6288   H        10 RES10   0.0000
  1900 C6      16.6716  13.8341  18.0686   C.2      10 RES10   0.0000
  1901 C7      17.8693  14.2283  17.4980   C.2      10 RES10   0.0000
  1902 H7      17.9004  14.6245  16.6562   H        10 RES10   0.0000
  1903 C8      11.6025  14.4593  15.6616   C.2      10 RES10   0.0000
  1904 H8      11.6566  13.9078  14.9160   H        10 RES10   0.0000
  1905 C9      12.1888  15.6658  17.2962   C.2      10 RES10   0.0000
  1906 C10     12.8497  16.3885  18.3366   C.2      10 RES10   0.0000
  1907 H10     13.7750  16.3825  18.4044   H        10 RES10   0.0000
  1908 C11     14.8440  17.1988  14.2918   C.2      10 RES10   0.0000
  1909 C12     13.8083  16.8504  13.3492   C.2      10 RES10   0.0000
  1910 H12     13.3578  16.0381  13.3964   H        10 RES10   0.0000
  1911 C13     12.0957  17.0853  19.2240   C.2      10 RES10   0.0000
  1912 H13     12.5244  17.5691  19.8924   H        10 RES10   0.0000
  1913 C14     13.5210  17.7941  12.3608   C.2      10 RES10   0.0000
  1914 H14     12.8531  17.6208  11.7382   H        10 RES10   0.0000
  1915 N1      15.0176  13.4977  14.3438   N.2      10 RES10   0.0000
  1916 N2      15.3521  16.4661  15.3826   N.2      10 RES10   0.0000
  1917 N3      15.3670  13.9237  17.5784   N.2      10 RES10   0.0000
  1918 N4      12.6842  14.8873  16.2795   N.2      10 RES10   0.0000
  1919 Zn1     14.6363  14.6757  15.8933   Zn       10 RES10   0.0000
  1920 C1       8.3680  13.1864  18.2383   C.2      10 RES10   0.0000
  1921 H1       9.2933  13.2482  18.3061   H        10 RES10   0.0000
  1922 C2       6.3680  13.3338  17.4486   C.2      10 RES10   0.0000
  1923 C3       5.2220  13.5747  16.7266   C.2      10 RES10   0.0000
  1924 H3       5.2495  13.9927  15.8975   H        10 RES10   0.0000
  1925 C4       4.0380  13.1645  17.2815   C.2      10 RES10   0.0000
  1926 H4       3.2472  13.3039  16.8133   H        10 RES10   0.0000
  1927 C5       3.9840  12.5374  18.5536   C.2      10 RES10   0.0000
  1928 H5       3.1610  12.2706  18.8972   H        10 RES10   0.0000
  1929 C6       8.8220  12.3881  13.4574   C.2      10 RES10   0.0000
  1930 C7       9.7623  11.5479  14.0280   C.2      10 RES10   0.0000
  1931 H7      10.1209  11.7191  14.8698   H        10 RES10   0.0000
  1932 C8       6.8289  17.0906  15.8644   C.2      10 RES10   0.0000
  1933 H8       6.3783  16.7681  16.6100   H        10 RES10   0.0000
  1934 C9       8.1668  17.1862  14.2298   C.2      10 RES10   0.0000
  1935 C10      9.1232  16.9751  13.1894   C.2      10 RES10   0.0000
  1936 H10      9.5807  16.1708  13.1216   H        10 RES10   0.0000
  1937 C11     10.8221  15.6532  17.2342   C.2      10 RES10   0.0000
  1938 C12     10.0025  16.3759  18.1768   C.2      10 RES10   0.0000
  1939 H12      9.0738  16.3599  18.1296   H        10 RES10   0.0000
  1940 C13      9.3496  17.9766  12.3020   C.2      10 RES10   0.0000
  1941 H13      9.9830  17.8471  11.6336   H        10 RES10   0.0000
  1942 C14     10.6761  17.0966  19.1652   C.2      10 RES10   0.0000
  1943 H14     10.1922  17.5883  19.7878   H        10 RES10   0.0000
  1944 N1       7.7036  13.6523  17.1822   N.2      10 RES10   0.0000
  1945 N2      10.4416  14.8468  16.1434   N.2      10 RES10   0.0000
  1946 N3       8.2473  13.5627  13.9476   N.2      10 RES10   0.0000
  1947 N4       7.7404  16.3679  15.2465   N.2      10 RES10   0.0000
  1948 Zn1      8.5332  14.5715  15.6327   Zn       10 RES10   0.0000
  1949 C1      18.8797  20.5627  18.2383   C.2      10 RES10   0.0000
  1950 H1      18.3636  21.3332  18.3061   H        10 RES10   0.0000
  1951 C2      19.7521  18.7570  17.4486   C.2      10 RES10   0.0000
  1952 C3      20.1165  17.6441  16.7266   C.2      10 RES10   0.0000
  1953 H3      19.7407  17.4589  15.8975   H        10 RES10   0.0000
  1954 C4      21.0637  16.8238  17.2815   C.2      10 RES10   0.0000
  1955 H4      21.3384  16.0693  16.8133   H        10 RES10   0.0000
  1956 C5      21.6338  17.0906  18.5536   C.2      10 RES10   0.0000
  1957 H5      22.2763  16.5112  18.8972   H        10 RES10   0.0000
  1958 C6      19.3441  21.3551  13.4574   C.2      10 RES10   0.0000
  1959 C7      19.6016  22.5895  14.0280   C.2      10 RES10   0.0000
  1960 H7      19.2740  22.8145  14.8698   H        10 RES10   0.0000
  1961 C8      16.2682  17.2777  15.8644   C.2      10 RES10   0.0000
  1962 H8      16.7728  17.0488  16.6100   H        10 RES10   0.0000
  1963 C9      15.5164  18.3887  14.2298   C.2      10 RES10   0.0000
  1964 C10     15.2210  19.3224  13.1894   C.2      10 RES10   0.0000
  1965 H10     15.6888  20.1208  13.1216   H        10 RES10   0.0000
  1966 C11     15.5164  21.4547  17.2342   C.2      10 RES10   0.0000
  1967 C12     15.3003  20.3836  18.1768   C.2      10 RES10   0.0000
  1968 H12     15.7785  19.5872  18.1296   H        10 RES10   0.0000
  1969 C13     14.2405  19.0178  12.3020   C.2      10 RES10   0.0000
  1970 H13     14.0359  19.6310  11.6336   H        10 RES10   0.0000
  1971 C14     14.3394  20.6065  19.1652   C.2      10 RES10   0.0000
  1972 H14     14.1555  19.9416  19.7878   H        10 RES10   0.0000
  1973 N1      18.8085  19.7544  17.1822   N.2      10 RES10   0.0000
  1974 N2      16.4050  21.5283  16.1434   N.2      10 RES10   0.0000
  1975 N3      18.6142  20.2701  13.9476   N.2      10 RES10   0.0000
  1976 N4      16.4383  18.4285  15.2465   N.2      10 RES10   0.0000
  1977 Zn1     17.5976  20.0132  15.6327   Zn       10 RES10   0.0000
  1978 C1      14.6210  26.6317  13.2877   C.2      10 RES10   0.0000
  1979 H1      13.6957  26.5700  13.2199   H        10 RES10   0.0000
  1980 C2      16.6210  26.4844  14.0774   C.2      10 RES10   0.0000
  1981 C3      17.7670  26.2435  14.7994   C.2      10 RES10   0.0000
  1982 H3      17.7395  25.8254  15.6285   H        10 RES10   0.0000
  1983 C4      18.9510  26.6536  14.2445   C.2      10 RES10   0.0000
  1984 H4      19.7418  26.5142  14.7127   H        10 RES10   0.0000
  1985 C5      19.0050  27.2807  12.9724   C.2      10 RES10   0.0000
  1986 H5      19.8280  27.5475  12.6288   H        10 RES10   0.0000
  1987 C6      14.1670  27.4300  18.0686   C.2      10 RES10   0.0000
  1988 C7      13.2267  28.2702  17.4980   C.2      10 RES10   0.0000
  1989 H7      12.8681  28.0990  16.6562   H        10 RES10   0.0000
  1990 C8      16.1601  22.7275  15.6616   C.2      10 RES10   0.0000
  1991 H8      16.6107  23.0500  14.9160   H        10 RES10   0.0000
  1992 C9      14.8222  22.6320  17.2962   C.2      10 RES10   0.0000
  1993 C10     13.8658  22.8430  18.3366   C.2      10 RES10   0.0000
  1994 H10     13.4083  23.6473  18.4044   H        10 RES10   0.0000
  1995 C11     12.1669  24.1650  14.2918   C.2      10 RES10   0.0000
  1996 C12     12.9865  23.4423  13.3492   C.2      10 RES10   0.0000
  1997 H12     13.9152  23.4582  13.3964   H        10 RES10   0.0000
  1998 C13     13.6394  21.8416  19.2240   C.2      10 RES10   0.0000
  1999 H13     13.0060  21.9710  19.8924   H        10 RES10   0.0000
  2000 C14     12.3129  22.7215  12.3608   C.2      10 RES10   0.0000
  2001 H14     12.7968  22.2298  11.7382   H        10 RES10   0.0000
  2002 N1      15.2854  26.1658  14.3438   N.2      10 RES10   0.0000
  2003 N2      12.5474  24.9713  15.3826   N.2      10 RES10   0.0000
  2004 N3      14.7417  26.2554  17.5784   N.2      10 RES10   0.0000
  2005 N4      15.2486  23.4502  16.2795   N.2      10 RES10   0.0000
  2006 Zn1     14.4558  25.2466  15.8933   Zn       10 RES10   0.0000
  2007 C1       4.1093  19.2554  13.2877   C.2      10 RES10   0.0000
  2008 H1       4.6254  18.4849  13.2199   H        10 RES10   0.0000
  2009 C2       3.2369  21.0611  14.0774   C.2      10 RES10   0.0000
  2010 C3       2.8725  22.1740  14.7994   C.2      10 RES10   0.0000
  2011 H3       3.2483  22.3592  15.6285   H        10 RES10   0.0000
  2012 C4       1.9253  22.9943  14.2445   C.2      10 RES10   0.0000
  2013 H4       1.6506  23.7489  14.7127   H        10 RES10   0.0000
  2014 C5       1.3552  22.7275  12.9724   C.2      10 RES10   0.0000
  2015 H5       0.7127  23.3069  12.6288   H        10 RES10   0.0000
  2016 C6       3.6449  18.4630  18.0686   C.2      10 RES10   0.0000
  2017 C7       3.3874  17.2286  17.4980   C.2      10 RES10   0.0000
  2018 H7       3.7150  17.0037  16.6562   H        10 RES10   0.0000
  2019 C8       6.7208  22.5404  15.6616   C.2      10 RES10   0.0000
  2020 H8       6.2162  22.7693  14.9160   H        10 RES10   0.0000
  2021 C9       7.4726  21.4294  17.2962   C.2      10 RES10   0.0000
  2022 C10      7.7680  20.4957  18.3366   C.2      10 RES10   0.0000
  2023 H10      7.3002  19.6974  18.4044   H        10 RES10   0.0000
  2024 C11      7.4726  18.3635  14.2918   C.2      10 RES10   0.0000
  2025 C12      7.6887  19.4346  13.3492   C.2      10 RES10   0.0000
  2026 H12      7.2105  20.2309  13.3964   H        10 RES10   0.0000
  2027 C13      8.7485  20.8003  19.2240   C.2      10 RES10   0.0000
  2028 H13      8.9531  20.1871  19.8924   H        10 RES10   0.0000
  2029 C14      8.6496  19.2116  12.3608   C.2      10 RES10   0.0000
  2030 H14      8.8335  19.8765  11.7382   H        10 RES10   0.0000
  2031 N1       4.1805  20.0637  14.3438   N.2      10 RES10   0.0000
  2032 N2       6.5840  18.2898  15.3826   N.2      10 RES10   0.0000
  2033 N3       4.3748  19.5480  17.5784   N.2      10 RES10   0.0000
  2034 N4       6.5507  21.3896  16.2795   N.2      10 RES10   0.0000
  2035 Zn1      5.3914  19.8049  15.8933   Zn       10 RES10   0.0000
  2036 C1       7.2358  25.9780  18.2383   C.2      10 RES10   0.0000
  2037 H1       6.8266  25.1458  18.3061   H        10 RES10   0.0000
  2038 C2       8.3634  27.6364  17.4486   C.2      10 RES10   0.0000
  2039 C3       9.1450  28.5084  16.7266   C.2      10 RES10   0.0000
  2040 H3       9.4933  28.2755  15.8975   H        10 RES10   0.0000
  2041 C4       9.3818  29.7388  17.2815   C.2      10 RES10   0.0000
  2042 H4       9.8979  30.3540  16.8133   H        10 RES10   0.0000
  2043 C5       8.8657  30.0992  18.5536   C.2      10 RES10   0.0000
  2044 H5       9.0462  30.9453  18.8972   H        10 RES10   0.0000
  2045 C6       6.3174  25.9840  13.4574   C.2      10 RES10   0.0000
  2046 C7       5.1197  25.5898  14.0280   C.2      10 RES10   0.0000
  2047 H7       5.0886  25.1936  14.8698   H        10 RES10   0.0000
  2048 C8      11.3865  25.3588  15.8644   C.2      10 RES10   0.0000
  2049 H8      11.3324  25.9103  16.6100   H        10 RES10   0.0000
  2050 C9      10.8002  24.1523  14.2298   C.2      10 RES10   0.0000
  2051 C10     10.1393  23.4296  13.1894   C.2      10 RES10   0.0000
  2052 H10      9.2140  23.4356  13.1216   H        10 RES10   0.0000
  2053 C11      8.1450  22.6193  17.2342   C.2      10 RES10   0.0000
  2054 C12      9.1807  22.9678  18.1768   C.2      10 RES10   0.0000
  2055 H12      9.6312  23.7800  18.1296   H        10 RES10   0.0000
  2056 C13     10.8933  22.7328  12.3020   C.2      10 RES10   0.0000
  2057 H13     10.4646  22.2490  11.6336   H        10 RES10   0.0000
  2058 C14      9.4680  22.0241  19.1652   C.2      10 RES10   0.0000
  2059 H14     10.1359  22.1973  19.7878   H        10 RES10   0.0000
  2060 N1       7.9714  26.3204  17.1822   N.2      10 RES10   0.0000
  2061 N2       7.6369  23.3520  16.1434   N.2      10 RES10   0.0000
  2062 N3       7.6220  25.8944  13.9476   N.2      10 RES10   0.0000
  2063 N4      10.3048  24.9308  15.2465   N.2      10 RES10   0.0000
  2064 Zn1      8.3527  25.1424  15.6327   Zn       10 RES10   0.0000
  2065 C1       4.2587  20.4765  18.5420   C.2      10 RES10   0.0000
  2066 C1      14.6210  13.3590  18.5420   C.2      10 RES10   0.0000
  2067 C1      15.6038  25.8917  18.5420   C.2      10 RES10   0.0000
  2068 C1      18.7303  19.3416  12.9840   C.2      10 RES10   0.0000
  2069 C1       8.3680  26.4591  12.9840   C.2      10 RES10   0.0000
  2070 C1       7.3852  13.9264  12.9840   C.2      10 RES10   0.0000
  2071 C2       3.1311  18.8180  19.3317   C.2      10 RES10   0.0000
  2072 C2      16.6210  13.2117  19.3317   C.2      10 RES10   0.0000
  2073 C2      14.7314  27.6975  19.3317   C.2      10 RES10   0.0000
  2074 C2      19.8579  21.0001  12.1943   C.2      10 RES10   0.0000
  2075 C2       6.3680  26.6065  12.1943   C.2      10 RES10   0.0000
  2076 C2       8.2576  12.1206  12.1943   C.2      10 RES10   0.0000
  2077 C5       2.6288  16.3553  18.2268   C.2      10 RES10   0.0000
  2078 C5      19.0050  14.0080  18.2268   C.2      10 RES10   0.0000
  2079 C5      12.8497  29.3639  18.2268   C.2      10 RES10   0.0000
  2080 C5      20.3602  23.4628  13.2992   C.2      10 RES10   0.0000
  2081 C5       3.9840  25.8101  13.2992   C.2      10 RES10   0.0000
  2082 C5      10.1393  10.4542  13.2992   C.2      10 RES10   0.0000
  2083 C6      16.6716  27.1068  12.8143   C.2      10 RES10   0.0000
  2084 C6       2.6725  20.7937  12.8143   C.2      10 RES10   0.0000
  2085 C6      15.1394  11.8266  12.8143   C.2      10 RES10   0.0000
  2086 C6       6.3174  12.7113  18.7117   C.2      10 RES10   0.0000
  2087 C6      20.3165  19.0244  18.7117   C.2      10 RES10   0.0000
  2088 C6       7.8496  27.9915  18.7117   C.2      10 RES10   0.0000
  2089 C7      17.8693  27.5010  12.2436   C.2      10 RES10   0.0000
  2090 C7       1.7322  21.6338  12.2436   C.2      10 RES10   0.0000
  2091 C7      14.8819  10.5923  12.2436   C.2      10 RES10   0.0000
  2092 C7       5.1197  12.3171  19.2824   C.2      10 RES10   0.0000
  2093 C7      21.2568  18.1843  19.2824   C.2      10 RES10   0.0000
  2094 C7       8.1071  29.2258  19.2824   C.2      10 RES10   0.0000
  2095 N3      15.3670  27.1964  12.3240   N.2      10 RES10   0.0000
  2096 N3       3.2472  19.6190  12.3240   N.2      10 RES10   0.0000
  2097 N3      15.8693  12.9117  12.3240   N.2      10 RES10   0.0000
  2098 N3       7.6220  12.6217  19.2020   N.2      10 RES10   0.0000
  2099 N3      19.7418  20.1991  19.2020   N.2      10 RES10   0.0000
  2100 N3       7.1197  26.9064  19.2020   N.2      10 RES10   0.0000
  2101 O1S      0.0000   0.0000  10.1198   O.3      11 RES11   0.0000
  2102 O1S    -11.4945  19.9091  10.1198   O.3      12 RES12   0.0000
  2103 O1S     22.9890   0.0000  10.1198   O.3      13 RES13   0.0000
  2104 O1S     11.4945  19.9091  10.1198   O.3      14 RES14   0.0000
  2105 O1S     11.4945   6.6364  15.3742   O.3      15 RES15   0.0000
  2106 O1S      0.0000  13.2727   4.8655   O.3      16 RES16   0.0000
  2107 O1S      0.0000   0.0000   5.6432   O.3      17 RES17   0.0000
  2108 O1S    -11.4945  19.9091   5.6432   O.3      18 RES18   0.0000
  2109 O1S     22.9890   0.0000   5.6432   O.3      19 RES19   0.0000
  2110 O1S     11.4945  19.9091   5.6432   O.3      20 RES20   0.0000
  2111 O1S     11.4945   6.6364  10.8975   O.3      21 RES21   0.0000
  2112 O1S      0.0000  13.2727   0.3888   O.3      22 RES22   0.0000
  2113 O2S     17.4555   3.2770  10.3531   O.3      23 RES23   0.0000
  2114 O4S     15.9429   3.5717   9.6217   O.3      23 RES23   0.0000
  2115 O5S     17.1785   2.7654  11.8774   O.3      23 RES23   0.0000
  2116 O2S     17.0280   3.3593  10.6642   O.3      23 RES23   0.0000
  2117 O4S     18.5406   3.0647  11.3956   O.3      23 RES23   0.0000
  2118 O5S     17.3050   3.8710   9.1399   O.3      23 RES23   0.0000
  2119 O2S     11.4232  13.4784  10.3531   O.3      24 RES24   0.0000
  2120 O4S     11.9244  12.0211   9.6217   O.3      24 RES24   0.0000
  2121 O5S     12.0049  13.4944  11.8774   O.3      24 RES24   0.0000
  2122 O2S     11.5658  13.0670  10.6642   O.3      24 RES24   0.0000
  2123 O4S     11.0646  14.5243  11.3956   O.3      24 RES24   0.0000
  2124 O5S     10.9841  13.0511   9.1399   O.3      24 RES24   0.0000
  2125 O2S      5.6047   3.1536  10.3531   O.3      25 RES25   0.0000
  2126 O4S      6.6162   4.3163   9.6217   O.3      25 RES25   0.0000
  2127 O5S      5.3001   3.6493  11.8774   O.3      25 RES25   0.0000
  2128 O2S      5.8898   3.4828  10.6642   O.3      25 RES25   0.0000
  2129 O4S      4.8783   2.3201  11.3956   O.3      25 RES25   0.0000
  2130 O5S      6.1944   2.9870   9.1399   O.3      25 RES25   0.0000
  2131 O2S      5.9610   9.9134  -0.1555   O.3      26 RES26   0.0000
  2132 O4S      4.4484  10.2080  -0.8869   O.3      26 RES26   0.0000
  2133 O5S      5.6840   9.4017   1.3688   O.3      26 RES26   0.0000
  2134 O2S      5.5335   9.9957   0.1555   O.3      26 RES26   0.0000
  2135 O4S      7.0461   9.7010   0.8869   O.3      26 RES26   0.0000
  2136 O5S      5.8105  10.5073  -1.3688   O.3      26 RES26   0.0000
  2137 O2S      5.9610   9.9134  15.6075   O.3      27 RES27   0.0000
  2138 O4S      4.4484  10.2080  14.8761   O.3      27 RES27   0.0000
  2139 O5S      5.6840   9.4017  17.1318   O.3      27 RES27   0.0000
  2140 O2S      5.5335   9.9957  15.9185   O.3      27 RES27   0.0000
  2141 O4S      7.0461   9.7010  16.6499   O.3      27 RES27   0.0000
  2142 O5S      5.8105  10.5073  14.3942   O.3      27 RES27   0.0000
  2143 O2S     11.4232   0.2057  -0.1555   O.3      28 RES28   0.0000
  2144 O4S     11.9244  -1.2516  -0.8869   O.3      28 RES28   0.0000
  2145 O5S     12.0049   0.2217   1.3688   O.3      28 RES28   0.0000
  2146 O2S     11.5658  -0.2057   0.1555   O.3      28 RES28   0.0000
  2147 O4S     11.0646   1.2516   0.8869   O.3      28 RES28   0.0000
  2148 O5S     10.9841  -0.2217  -1.3688   O.3      28 RES28   0.0000
  2149 O2S     11.4232   0.2057  15.6075   O.3      29 RES29   0.0000
  2150 O4S     11.9244  -1.2516  14.8761   O.3      29 RES29   0.0000
  2151 O5S     12.0049   0.2217  17.1318   O.3      29 RES29   0.0000
  2152 O2S     11.5658  -0.2057  15.9185   O.3      29 RES29   0.0000
  2153 O4S     11.0646   1.2516  16.6499   O.3      29 RES29   0.0000
  2154 O5S     10.9841  -0.2217  14.3942   O.3      29 RES29   0.0000
  2155 O2S     -0.0713  20.1148  -0.1555   O.3      30 RES30   0.0000
  2156 O4S      0.4299  18.6574  -0.8869   O.3      30 RES30   0.0000
  2157 O5S      0.5104  20.1307   1.3688   O.3      30 RES30   0.0000
  2158 O2S      0.0713  19.7033   0.1555   O.3      30 RES30   0.0000
  2159 O4S     -0.4299  21.1607   0.8869   O.3      30 RES30   0.0000
  2160 O5S     -0.5104  19.6874  -1.3688   O.3      30 RES30   0.0000
  2161 O2S     -0.0713  20.1148  15.6075   O.3      31 RES31   0.0000
  2162 O4S      0.4299  18.6574  14.8761   O.3      31 RES31   0.0000
  2163 O5S      0.5104  20.1307  17.1318   O.3      31 RES31   0.0000
  2164 O2S      0.0713  19.7033  15.9185   O.3      31 RES31   0.0000
  2165 O4S     -0.4299  21.1607  16.6499   O.3      31 RES31   0.0000
  2166 O5S     -0.5104  19.6874  14.3942   O.3      31 RES31   0.0000
  2167 O2S     -5.8898   9.7899  -0.1555   O.3      32 RES32   0.0000
  2168 O4S     -4.8783  10.9526  -0.8869   O.3      32 RES32   0.0000
  2169 O5S     -6.1944  10.2857   1.3688   O.3      32 RES32   0.0000
  2170 O2S     -5.6047  10.1191   0.1555   O.3      32 RES32   0.0000
  2171 O4S     -6.6162   8.9564   0.8869   O.3      32 RES32   0.0000
  2172 O5S     -5.3001   9.6234  -1.3688   O.3      32 RES32   0.0000
  2173 O2S     -5.8898   9.7899  15.6075   O.3      33 RES33   0.0000
  2174 O4S     -4.8783  10.9526  14.8761   O.3      33 RES33   0.0000
  2175 O5S     -6.1944  10.2857  17.1318   O.3      33 RES33   0.0000
  2176 O2S     -5.6047  10.1191  15.9185   O.3      33 RES33   0.0000
  2177 O4S     -6.6162   8.9564  16.6499   O.3      33 RES33   0.0000
  2178 O5S     -5.3001   9.6234  14.3942   O.3      33 RES33   0.0000
  2179 O2S     17.0992   9.7899  -0.1555   O.3      34 RES34   0.0000
  2180 O4S     18.1107  10.9526  -0.8869   O.3      34 RES34   0.0000
  2181 O5S     16.7946  10.2857   1.3688   O.3      34 RES34   0.0000
  2182 O2S     17.3843  10.1191   0.1555   O.3      34 RES34   0.0000
  2183 O4S     16.3728   8.9564   0.8869   O.3      34 RES34   0.0000
  2184 O5S     17.6889   9.6234  -1.3688   O.3      34 RES34   0.0000
  2185 O2S     17.0992   9.7899  15.6075   O.3      35 RES35   0.0000
  2186 O4S     18.1107  10.9526  14.8761   O.3      35 RES35   0.0000
  2187 O5S     16.7946  10.2857  17.1318   O.3      35 RES35   0.0000
  2188 O2S     17.3843  10.1191  15.9185   O.3      35 RES35   0.0000
  2189 O4S     16.3728   8.9564  16.6499   O.3      35 RES35   0.0000
  2190 O5S     17.6889   9.6234  14.3942   O.3      35 RES35   0.0000
  2191 O2S     -5.5335  16.5497   5.0988   O.3      36 RES36   0.0000
  2192 O4S     -7.0461  16.8444   4.3674   O.3      36 RES36   0.0000
  2193 O5S     -5.8105  16.0381   6.6231   O.3      36 RES36   0.0000
  2194 O2S     -5.9610  16.6320   5.4099   O.3      36 RES36   0.0000
  2195 O4S     -4.4484  16.3374   6.1413   O.3      36 RES36   0.0000
  2196 O5S     -5.6840  17.1437   3.8856   O.3      36 RES36   0.0000
  2197 O2S     -0.0713   6.8421   5.0988   O.3      37 RES37   0.0000
  2198 O4S      0.4299   5.3847   4.3674   O.3      37 RES37   0.0000
  2199 O5S      0.5104   6.8580   6.6231   O.3      37 RES37   0.0000
  2200 O2S      0.0713   6.4306   5.4099   O.3      37 RES37   0.0000
  2201 O4S     -0.4299   7.8880   6.1413   O.3      37 RES37   0.0000
  2202 O5S     -0.5104   6.4147   3.8856   O.3      37 RES37   0.0000
  2203 O2S      5.6047  16.4263   5.0988   O.3      38 RES38   0.0000
  2204 O4S      6.6162  17.5890   4.3674   O.3      38 RES38   0.0000
  2205 O5S      5.3001  16.9220   6.6231   O.3      38 RES38   0.0000
  2206 O2S      5.8898  16.7555   5.4099   O.3      38 RES38   0.0000
  2207 O4S      4.8783  15.5928   6.1413   O.3      38 RES38   0.0000
  2208 O5S      6.1944  16.2597   3.8856   O.3      38 RES38   0.0000
  2209 O3S     11.4956   6.6357   5.2538   O.3      39 RES39   0.0000
  2210 O3S     11.4945   6.6377   5.2538   O.3      40 RES40   0.0000
  2211 O3S     11.4934   6.6357   5.2538   O.3      41 RES41   0.0000
  2212 O3S      0.0011  13.2720  10.5081   O.3      42 RES42   0.0000
  2213 O3S      0.0000  13.2740  10.5081   O.3      43 RES43   0.0000
  2214 O3S     -0.0011  13.2720  10.5081   O.3      44 RES44   0.0000
  2215 O3S      0.0011  -0.0007  -0.0005   O.3      45 RES45   0.0000
  2216 O3S      0.0011  -0.0007  15.7625   O.3      46 RES46   0.0000
  2217 O3S    -11.4934  19.9084  -0.0005   O.3      47 RES47   0.0000
  2218 O3S    -11.4934  19.9084  15.7625   O.3      48 RES48   0.0000
  2219 O3S     22.9901  -0.0007  -0.0005   O.3      49 RES49   0.0000
  2220 O3S     22.9901  -0.0007  15.7625   O.3      50 RES50   0.0000
  2221 O3S     11.4956  19.9084  -0.0005   O.3      51 RES51   0.0000
  2222 O3S     11.4956  19.9084  15.7625   O.3      52 RES52   0.0000
  2223 O3S      0.0000   0.0013  -0.0005   O.3      53 RES53   0.0000
  2224 O3S      0.0000   0.0013  15.7625   O.3      54 RES54   0.0000
  2225 O3S     22.9890   0.0013  -0.0005   O.3      55 RES55   0.0000
  2226 O3S     22.9890   0.0013  15.7625   O.3      56 RES56   0.0000
  2227 O3S     22.9879  -0.0007  -0.0005   O.3      57 RES57   0.0000
  2228 O3S     22.9879  -0.0007  15.7625   O.3      58 RES58   0.0000
  2229 O3S     11.4934  19.9084  -0.0005   O.3      59 RES59   0.0000
  2230 O3S     11.4934  19.9084  15.7625   O.3      60 RES60   0.0000
  2231 O3S     -0.0011  13.2734  10.5092   O.3      61 RES61   0.0000
  2232 O3S      0.0000  13.2714  10.5092   O.3      62 RES62   0.0000
  2233 O3S      0.0011  13.2734  10.5092   O.3      63 RES63   0.0000
  2234 O3S     -0.0011   0.0007   0.0005   O.3      64 RES64   0.0000
  2235 O3S     -0.0011   0.0007  15.7635   O.3      65 RES65   0.0000
  2236 O3S    -11.4956  19.9097   0.0005   O.3      66 RES66   0.0000
  2237 O3S    -11.4956  19.9097  15.7635   O.3      67 RES67   0.0000
  2238 O3S     22.9879   0.0007   0.0005   O.3      68 RES68   0.0000
  2239 O3S     22.9879   0.0007  15.7635   O.3      69 RES69   0.0000
  2240 O3S     11.4934  19.9097   0.0005   O.3      70 RES70   0.0000
  2241 O3S     11.4934  19.9097  15.7635   O.3      71 RES71   0.0000
  2242 O3S    -11.4945  19.9077   0.0005   O.3      72 RES72   0.0000
  2243 O3S    -11.4945  19.9077  15.7635   O.3      73 RES73   0.0000
  2244 O3S     11.4945  19.9077   0.0005   O.3      74 RES74   0.0000
  2245 O3S     11.4945  19.9077  15.7635   O.3      75 RES75   0.0000
  2246 O3S      0.0011   0.0007   0.0005   O.3      76 RES76   0.0000
  2247 O3S      0.0011   0.0007  15.7635   O.3      77 RES77   0.0000
  2248 O3S    -11.4934  19.9097   0.0005   O.3      78 RES78   0.0000
  2249 O3S    -11.4934  19.9097  15.7635   O.3      79 RES79   0.0000
  2250 O3S     11.4934   6.6370   5.2549   O.3      80 RES80   0.0000
  2251 O3S     11.4945   6.6350   5.2549   O.3      81 RES81   0.0000
  2252 O3S     11.4956   6.6370   5.2549   O.3      82 RES82   0.0000
@<TRIPOS>BOND
     1     1     2    1
     2     1    25   un
     3     1   207   un
     4     3     4   un
     5     3    25   un
     6     3   195   un
     7     4     5    1
     8     4     6   un
     9     6     7    1
    10     6     8   un
    11     8     9    1
    12     8   201   un
    13    10    11   un
    14    10    27   un
    15    10   182   un
    16    11    12    1
    17    11   188   un
    18    13    14    1
    19    13    28   un
    20    13    55   un
    21    15    16   un
    22    15    28   un
    23    15    47   un
    24    16    17    1
    25    16    21   un
    26    18    19   un
    27    18    26   un
    28    18    73   un
    29    19    20    1
    30    19    23   un
    31    21    22    1
    32    21    52   un
    33    23    24    1
    34    23    79   un
    35    25    29   un
    36    26    29   un
    37    26    71   un
    38    27    29   un
    39    27   176   un
    40    28    29   un
    41    30    31    1
    42    30    54   un
    43    30   208   un
    44    32    33   un
    45    32    54   un
    46    32   196   un
    47    33    34    1
    48    33    35   un
    49    35    36    1
    50    35    37   un
    51    37    38    1
    52    37   202   un
    53    39    40   un
    54    39    56   un
    55    39   186   un
    56    40    41    1
    57    40   192   un
    58    42    43    1
    59    42    57   un
    60    42   142   un
    61    44    45   un
    62    44    57   un
    63    44   134   un
    64    45    46    1
    65    45    50   un
    66    47    48   un
    67    47    55   un
    68    48    49    1
    69    48    52   un
    70    50    51    1
    71    50   139   un
    72    52    53    1
    73    54    58   un
    74    55    58   un
    75    56    58   un
    76    56   180   un
    77    57    58   un
    78    59    60    1
    79    59    83   un
    80    59   209   un
    81    61    62   un
    82    61    83   un
    83    61   197   un
    84    62    63    1
    85    62    64   un
    86    64    65    1
    87    64    66   un
    88    66    67    1
    89    66   203   un
    90    68    69   un
    91    68    85   un
    92    68   184   un
    93    69    70    1
    94    69   190   un
    95    71    72    1
    96    71    86   un
    97    73    74   un
    98    73    86   un
    99    74    75    1
   100    74    79   un
   101    76    77   un
   102    76    84   un
   103    76   102   un
   104    77    78    1
   105    77    81   un
   106    79    80    1
   107    81    82    1
   108    81   108   un
   109    83    87   un
   110    84    87   un
   111    84   100   un
   112    85    87   un
   113    85   178   un
   114    86    87   un
   115    88    89    1
   116    88   112   un
   117    88   205   un
   118    90    91   un
   119    90   112   un
   120    90   193   un
   121    91    92    1
   122    91    93   un
   123    93    94    1
   124    93    95   un
   125    95    96    1
   126    95   199   un
   127    97    98   un
   128    97   114   un
   129    97   183   un
   130    98    99    1
   131    98   189   un
   132   100   101    1
   133   100   115   un
   134   102   103   un
   135   102   115   un
   136   103   104    1
   137   103   108   un
   138   105   106   un
   139   105   113   un
   140   105   160   un
   141   106   107    1
   142   106   110   un
   143   108   109    1
   144   110   111    1
   145   110   166   un
   146   112   116   un
   147   113   116   un
   148   113   158   un
   149   114   116   un
   150   114   177   un
   151   115   116   un
   152   117   118    1
   153   117   141   un
   154   117   206   un
   155   119   120   un
   156   119   141   un
   157   119   194   un
   158   120   121    1
   159   120   122   un
   160   122   123    1
   161   122   124   un
   162   124   125    1
   163   124   200   un
   164   126   127   un
   165   126   143   un
   166   126   181   un
   167   127   128    1
   168   127   187   un
   169   129   130    1
   170   129   144   un
   171   129   171   un
   172   131   132   un
   173   131   144   un
   174   131   163   un
   175   132   133    1
   176   132   137   un
   177   134   135   un
   178   134   142   un
   179   135   136    1
   180   135   139   un
   181   137   138    1
   182   137   168   un
   183   139   140    1
   184   141   145   un
   185   142   145   un
   186   143   145   un
   187   143   175   un
   188   144   145   un
   189   146   147    1
   190   146   170   un
   191   146   210   un
   192   148   149   un
   193   148   170   un
   194   148   198   un
   195   149   150    1
   196   149   151   un
   197   151   152    1
   198   151   153   un
   199   153   154    1
   200   153   204   un
   201   155   156   un
   202   155   172   un
   203   155   185   un
   204   156   157    1
   205   156   191   un
   206   158   159    1
   207   158   173   un
   208   160   161   un
   209   160   173   un
   210   161   162    1
   211   161   166   un
   212   163   164   un
   213   163   171   un
   214   164   165    1
   215   164   168   un
   216   166   167    1
   217   168   169    1
   218   170   174   un
   219   171   174   un
   220   172   174   un
   221   172   179   un
   222   173   174   un
   223   193   199   un
   224   193   205   un
   225   194   200   un
   226   194   206   un
   227   195   201   un
   228   195   207   un
   229   196   202   un
   230   196   208   un
   231   197   203   un
   232   197   209   un
   233   198   204   un
   234   198   210   un
   235   211   212    1
   236   211   235   un
   237   211   417   un
   238   213   214   un
   239   213   235   un
   240   213   405   un
   241   214   215    1
   242   214   216   un
   243   216   217    1
   244   216   218   un
   245   218   219    1
   246   218   411   un
   247   220   221   un
   248   220   237   un
   249   220   392   un
   250   221   222    1
   251   221   398   un
   252   223   224    1
   253   223   238   un
   254   223   265   un
   255   225   226   un
   256   225   238   un
   257   225   257   un
   258   226   227    1
   259   226   231   un
   260   228   229   un
   261   228   236   un
   262   228   283   un
   263   229   230    1
   264   229   233   un
   265   231   232    1
   266   231   262   un
   267   233   234    1
   268   233   289   un
   269   235   239   un
   270   236   239   un
   271   236   281   un
   272   237   239   un
   273   237   386   un
   274   238   239   un
   275   240   241    1
   276   240   264   un
   277   240   418   un
   278   242   243   un
   279   242   264   un
   280   242   406   un
   281   243   244    1
   282   243   245   un
   283   245   246    1
   284   245   247   un
   285   247   248    1
   286   247   412   un
   287   249   250   un
   288   249   266   un
   289   249   396   un
   290   250   251    1
   291   250   402   un
   292   252   253    1
   293   252   267   un
   294   252   352   un
   295   254   255   un
   296   254   267   un
   297   254   344   un
   298   255   256    1
   299   255   260   un
   300   257   258   un
   301   257   265   un
   302   258   259    1
   303   258   262   un
   304   260   261    1
   305   260   349   un
   306   262   263    1
   307   264   268   un
   308   265   268   un
   309   266   268   un
   310   266   390   un
   311   267   268   un
   312   269   270    1
   313   269   293   un
   314   269   419   un
   315   271   272   un
   316   271   293   un
   317   271   407   un
   318   272   273    1
   319   272   274   un
   320   274   275    1
   321   274   276   un
   322   276   277    1
   323   276   413   un
   324   278   279   un
   325   278   295   un
   326   278   394   un
   327   279   280    1
   328   279   400   un
   329   281   282    1
   330   281   296   un
   331   283   284   un
   332   283   296   un
   333   284   285    1
   334   284   289   un
   335   286   287   un
   336   286   294   un
   337   286   312   un
   338   287   288    1
   339   287   291   un
   340   289   290    1
   341   291   292    1
   342   291   318   un
   343   293   297   un
   344   294   297   un
   345   294   310   un
   346   295   297   un
   347   295   388   un
   348   296   297   un
   349   298   299    1
   350   298   322   un
   351   298   415   un
   352   300   301   un
   353   300   322   un
   354   300   403   un
   355   301   302    1
   356   301   303   un
   357   303   304    1
   358   303   305   un
   359   305   306    1
   360   305   409   un
   361   307   308   un
   362   307   324   un
   363   307   393   un
   364   308   309    1
   365   308   399   un
   366   310   311    1
   367   310   325   un
   368   312   313   un
   369   312   325   un
   370   313   314    1
   371   313   318   un
   372   315   316   un
   373   315   323   un
   374   315   370   un
   375   316   317    1
   376   316   320   un
   377   318   319    1
   378   320   321    1
   379   320   376   un
   380   322   326   un
   381   323   326   un
   382   323   368   un
   383   324   326   un
   384   324   387   un
   385   325   326   un
   386   327   328    1
   387   327   351   un
   388   327   416   un
   389   329   330   un
   390   329   351   un
   391   329   404   un
   392   330   331    1
   393   330   332   un
   394   332   333    1
   395   332   334   un
   396   334   335    1
   397   334   410   un
   398   336   337   un
   399   336   353   un
   400   336   391   un
   401   337   338    1
   402   337   397   un
   403   339   340    1
   404   339   354   un
   405   339   381   un
   406   341   342   un
   407   341   354   un
   408   341   373   un
   409   342   343    1
   410   342   347   un
   411   344   345   un
   412   344   352   un
   413   345   346    1
   414   345   349   un
   415   347   348    1
   416   347   378   un
   417   349   350    1
   418   351   355   un
   419   352   355   un
   420   353   355   un
   421   353   385   un
   422   354   355   un
   423   356   357    1
   424   356   380   un
   425   356   420   un
   426   358   359   un
   427   358   380   un
   428   358   408   un
   429   359   360    1
   430   359   361   un
   431   361   362    1
   432   361   363   un
   433   363   364    1
   434   363   414   un
   435   365   366   un
   436   365   382   un
   437   365   395   un
   438   366   367    1
   439   366   401   un
   440   368   369    1
   441   368   383   un
   442   370   371   un
   443   370   383   un
   444   371   372    1
   445   371   376   un
   446   373   374   un
   447   373   381   un
   448   374   375    1
   449   374   378   un
   450   376   377    1
   451   378   379    1
   452   380   384   un
   453   381   384   un
   454   382   384   un
   455   382   389   un
   456   383   384   un
   457   403   409   un
   458   403   415   un
   459   404   410   un
   460   404   416   un
   461   405   411   un
   462   405   417   un
   463   406   412   un
   464   406   418   un
   465   407   413   un
   466   407   419   un
   467   408   414   un
   468   408   420   un
   469   421   422    1
   470   421   445   un
   471   421   627   un
   472   423   424   un
   473   423   445   un
   474   423   615   un
   475   424   425    1
   476   424   426   un
   477   426   427    1
   478   426   428   un
   479   428   429    1
   480   428   621   un
   481   430   431   un
   482   430   447   un
   483   430   602   un
   484   431   432    1
   485   431   608   un
   486   433   434    1
   487   433   448   un
   488   433   475   un
   489   435   436   un
   490   435   448   un
   491   435   467   un
   492   436   437    1
   493   436   441   un
   494   438   439   un
   495   438   446   un
   496   438   493   un
   497   439   440    1
   498   439   443   un
   499   441   442    1
   500   441   472   un
   501   443   444    1
   502   443   499   un
   503   445   449   un
   504   446   449   un
   505   446   491   un
   506   447   449   un
   507   447   596   un
   508   448   449   un
   509   450   451    1
   510   450   474   un
   511   450   628   un
   512   452   453   un
   513   452   474   un
   514   452   616   un
   515   453   454    1
   516   453   455   un
   517   455   456    1
   518   455   457   un
   519   457   458    1
   520   457   622   un
   521   459   460   un
   522   459   476   un
   523   459   606   un
   524   460   461    1
   525   460   612   un
   526   462   463    1
   527   462   477   un
   528   462   562   un
   529   464   465   un
   530   464   477   un
   531   464   554   un
   532   465   466    1
   533   465   470   un
   534   467   468   un
   535   467   475   un
   536   468   469    1
   537   468   472   un
   538   470   471    1
   539   470   559   un
   540   472   473    1
   541   474   478   un
   542   475   478   un
   543   476   478   un
   544   476   600   un
   545   477   478   un
   546   479   480    1
   547   479   503   un
   548   479   629   un
   549   481   482   un
   550   481   503   un
   551   481   617   un
   552   482   483    1
   553   482   484   un
   554   484   485    1
   555   484   486   un
   556   486   487    1
   557   486   623   un
   558   488   489   un
   559   488   505   un
   560   488   604   un
   561   489   490    1
   562   489   610   un
   563   491   492    1
   564   491   506   un
   565   493   494   un
   566   493   506   un
   567   494   495    1
   568   494   499   un
   569   496   497   un
   570   496   504   un
   571   496   522   un
   572   497   498    1
   573   497   501   un
   574   499   500    1
   575   501   502    1
   576   501   528   un
   577   503   507   un
   578   504   507   un
   579   504   520   un
   580   505   507   un
   581   505   598   un
   582   506   507   un
   583   508   509    1
   584   508   532   un
   585   508   625   un
   586   510   511   un
   587   510   532   un
   588   510   613   un
   589   511   512    1
   590   511   513   un
   591   513   514    1
   592   513   515   un
   593   515   516    1
   594   515   619   un
   595   517   518   un
   596   517   534   un
   597   517   603   un
   598   518   519    1
   599   518   609   un
   600   520   521    1
   601   520   535   un
   602   522   523   un
   603   522   535   un
   604   523   524    1
   605   523   528   un
   606   525   526   un
   607   525   533   un
   608   525   580   un
   609   526   527    1
   610   526   530   un
   611   528   529    1
   612   530   531    1
   613   530   586   un
   614   532   536   un
   615   533   536   un
   616   533   578   un
   617   534   536   un
   618   534   597   un
   619   535   536   un
   620   537   538    1
   621   537   561   un
   622   537   626   un
   623   539   540   un
   624   539   561   un
   625   539   614   un
   626   540   541    1
   627   540   542   un
   628   542   543    1
   629   542   544   un
   630   544   545    1
   631   544   620   un
   632   546   547   un
   633   546   563   un
   634   546   601   un
   635   547   548    1
   636   547   607   un
   637   549   550    1
   638   549   564   un
   639   549   591   un
   640   551   552   un
   641   551   564   un
   642   551   583   un
   643   552   553    1
   644   552   557   un
   645   554   555   un
   646   554   562   un
   647   555   556    1
   648   555   559   un
   649   557   558    1
   650   557   588   un
   651   559   560    1
   652   561   565   un
   653   562   565   un
   654   563   565   un
   655   563   595   un
   656   564   565   un
   657   566   567    1
   658   566   590   un
   659   566   630   un
   660   568   569   un
   661   568   590   un
   662   568   618   un
   663   569   570    1
   664   569   571   un
   665   571   572    1
   666   571   573   un
   667   573   574    1
   668   573   624   un
   669   575   576   un
   670   575   592   un
   671   575   605   un
   672   576   577    1
   673   576   611   un
   674   578   579    1
   675   578   593   un
   676   580   581   un
   677   580   593   un
   678   581   582    1
   679   581   586   un
   680   583   584   un
   681   583   591   un
   682   584   585    1
   683   584   588   un
   684   586   587    1
   685   588   589    1
   686   590   594   un
   687   591   594   un
   688   592   594   un
   689   592   599   un
   690   593   594   un
   691   613   619   un
   692   613   625   un
   693   614   620   un
   694   614   626   un
   695   615   621   un
   696   615   627   un
   697   616   622   un
   698   616   628   un
   699   617   623   un
   700   617   629   un
   701   618   624   un
   702   618   630   un
   703   631   632    1
   704   631   655   un
   705   631   837   un
   706   633   634   un
   707   633   655   un
   708   633   825   un
   709   634   635    1
   710   634   636   un
   711   636   637    1
   712   636   638   un
   713   638   639    1
   714   638   831   un
   715   640   641   un
   716   640   657   un
   717   640   812   un
   718   641   642    1
   719   641   818   un
   720   643   644    1
   721   643   658   un
   722   643   685   un
   723   645   646   un
   724   645   658   un
   725   645   677   un
   726   646   647    1
   727   646   651   un
   728   648   649   un
   729   648   656   un
   730   648   703   un
   731   649   650    1
   732   649   653   un
   733   651   652    1
   734   651   682   un
   735   653   654    1
   736   653   709   un
   737   655   659   un
   738   656   659   un
   739   656   701   un
   740   657   659   un
   741   657   806   un
   742   658   659   un
   743   660   661    1
   744   660   684   un
   745   660   838   un
   746   662   663   un
   747   662   684   un
   748   662   826   un
   749   663   664    1
   750   663   665   un
   751   665   666    1
   752   665   667   un
   753   667   668    1
   754   667   832   un
   755   669   670   un
   756   669   686   un
   757   669   816   un
   758   670   671    1
   759   670   822   un
   760   672   673    1
   761   672   687   un
   762   672   772   un
   763   674   675   un
   764   674   687   un
   765   674   764   un
   766   675   676    1
   767   675   680   un
   768   677   678   un
   769   677   685   un
   770   678   679    1
   771   678   682   un
   772   680   681    1
   773   680   769   un
   774   682   683    1
   775   684   688   un
   776   685   688   un
   777   686   688   un
   778   686   810   un
   779   687   688   un
   780   689   690    1
   781   689   713   un
   782   689   839   un
   783   691   692   un
   784   691   713   un
   785   691   827   un
   786   692   693    1
   787   692   694   un
   788   694   695    1
   789   694   696   un
   790   696   697    1
   791   696   833   un
   792   698   699   un
   793   698   715   un
   794   698   814   un
   795   699   700    1
   796   699   820   un
   797   701   702    1
   798   701   716   un
   799   703   704   un
   800   703   716   un
   801   704   705    1
   802   704   709   un
   803   706   707   un
   804   706   714   un
   805   706   732   un
   806   707   708    1
   807   707   711   un
   808   709   710    1
   809   711   712    1
   810   711   738   un
   811   713   717   un
   812   714   717   un
   813   714   730   un
   814   715   717   un
   815   715   808   un
   816   716   717   un
   817   718   719    1
   818   718   742   un
   819   718   835   un
   820   720   721   un
   821   720   742   un
   822   720   823   un
   823   721   722    1
   824   721   723   un
   825   723   724    1
   826   723   725   un
   827   725   726    1
   828   725   829   un
   829   727   728   un
   830   727   744   un
   831   727   813   un
   832   728   729    1
   833   728   819   un
   834   730   731    1
   835   730   745   un
   836   732   733   un
   837   732   745   un
   838   733   734    1
   839   733   738   un
   840   735   736   un
   841   735   743   un
   842   735   790   un
   843   736   737    1
   844   736   740   un
   845   738   739    1
   846   740   741    1
   847   740   796   un
   848   742   746   un
   849   743   746   un
   850   743   788   un
   851   744   746   un
   852   744   807   un
   853   745   746   un
   854   747   748    1
   855   747   771   un
   856   747   836   un
   857   749   750   un
   858   749   771   un
   859   749   824   un
   860   750   751    1
   861   750   752   un
   862   752   753    1
   863   752   754   un
   864   754   755    1
   865   754   830   un
   866   756   757   un
   867   756   773   un
   868   756   811   un
   869   757   758    1
   870   757   817   un
   871   759   760    1
   872   759   774   un
   873   759   801   un
   874   761   762   un
   875   761   774   un
   876   761   793   un
   877   762   763    1
   878   762   767   un
   879   764   765   un
   880   764   772   un
   881   765   766    1
   882   765   769   un
   883   767   768    1
   884   767   798   un
   885   769   770    1
   886   771   775   un
   887   772   775   un
   888   773   775   un
   889   773   805   un
   890   774   775   un
   891   776   777    1
   892   776   800   un
   893   776   840   un
   894   778   779   un
   895   778   800   un
   896   778   828   un
   897   779   780    1
   898   779   781   un
   899   781   782    1
   900   781   783   un
   901   783   784    1
   902   783   834   un
   903   785   786   un
   904   785   802   un
   905   785   815   un
   906   786   787    1
   907   786   821   un
   908   788   789    1
   909   788   803   un
   910   790   791   un
   911   790   803   un
   912   791   792    1
   913   791   796   un
   914   793   794   un
   915   793   801   un
   916   794   795    1
   917   794   798   un
   918   796   797    1
   919   798   799    1
   920   800   804   un
   921   801   804   un
   922   802   804   un
   923   802   809   un
   924   803   804   un
   925   823   829   un
   926   823   835   un
   927   824   830   un
   928   824   836   un
   929   825   831   un
   930   825   837   un
   931   826   832   un
   932   826   838   un
   933   827   833   un
   934   827   839   un
   935   828   834   un
   936   828   840   un
   937   841   842    1
   938   841   865   un
   939   841  1047   un
   940   843   844   un
   941   843   865   un
   942   843  1035   un
   943   844   845    1
   944   844   846   un
   945   846   847    1
   946   846   848   un
   947   848   849    1
   948   848  1041   un
   949   850   851   un
   950   850   867   un
   951   850  1022   un
   952   851   852    1
   953   851  1028   un
   954   853   854    1
   955   853   868   un
   956   853   895   un
   957   855   856   un
   958   855   868   un
   959   855   887   un
   960   856   857    1
   961   856   861   un
   962   858   859   un
   963   858   866   un
   964   858   913   un
   965   859   860    1
   966   859   863   un
   967   861   862    1
   968   861   892   un
   969   863   864    1
   970   863   919   un
   971   865   869   un
   972   866   869   un
   973   866   911   un
   974   867   869   un
   975   867  1016   un
   976   868   869   un
   977   870   871    1
   978   870   894   un
   979   870  1048   un
   980   872   873   un
   981   872   894   un
   982   872  1036   un
   983   873   874    1
   984   873   875   un
   985   875   876    1
   986   875   877   un
   987   877   878    1
   988   877  1042   un
   989   879   880   un
   990   879   896   un
   991   879  1026   un
   992   880   881    1
   993   880  1032   un
   994   882   883    1
   995   882   897   un
   996   882   982   un
   997   884   885   un
   998   884   897   un
   999   884   974   un
  1000   885   886    1
  1001   885   890   un
  1002   887   888   un
  1003   887   895   un
  1004   888   889    1
  1005   888   892   un
  1006   890   891    1
  1007   890   979   un
  1008   892   893    1
  1009   894   898   un
  1010   895   898   un
  1011   896   898   un
  1012   896  1020   un
  1013   897   898   un
  1014   899   900    1
  1015   899   923   un
  1016   899  1049   un
  1017   901   902   un
  1018   901   923   un
  1019   901  1037   un
  1020   902   903    1
  1021   902   904   un
  1022   904   905    1
  1023   904   906   un
  1024   906   907    1
  1025   906  1043   un
  1026   908   909   un
  1027   908   925   un
  1028   908  1024   un
  1029   909   910    1
  1030   909  1030   un
  1031   911   912    1
  1032   911   926   un
  1033   913   914   un
  1034   913   926   un
  1035   914   915    1
  1036   914   919   un
  1037   916   917   un
  1038   916   924   un
  1039   916   942   un
  1040   917   918    1
  1041   917   921   un
  1042   919   920    1
  1043   921   922    1
  1044   921   948   un
  1045   923   927   un
  1046   924   927   un
  1047   924   940   un
  1048   925   927   un
  1049   925  1018   un
  1050   926   927   un
  1051   928   929    1
  1052   928   952   un
  1053   928  1045   un
  1054   930   931   un
  1055   930   952   un
  1056   930  1033   un
  1057   931   932    1
  1058   931   933   un
  1059   933   934    1
  1060   933   935   un
  1061   935   936    1
  1062   935  1039   un
  1063   937   938   un
  1064   937   954   un
  1065   937  1023   un
  1066   938   939    1
  1067   938  1029   un
  1068   940   941    1
  1069   940   955   un
  1070   942   943   un
  1071   942   955   un
  1072   943   944    1
  1073   943   948   un
  1074   945   946   un
  1075   945   953   un
  1076   945  1000   un
  1077   946   947    1
  1078   946   950   un
  1079   948   949    1
  1080   950   951    1
  1081   950  1006   un
  1082   952   956   un
  1083   953   956   un
  1084   953   998   un
  1085   954   956   un
  1086   954  1017   un
  1087   955   956   un
  1088   957   958    1
  1089   957   981   un
  1090   957  1046   un
  1091   959   960   un
  1092   959   981   un
  1093   959  1034   un
  1094   960   961    1
  1095   960   962   un
  1096   962   963    1
  1097   962   964   un
  1098   964   965    1
  1099   964  1040   un
  1100   966   967   un
  1101   966   983   un
  1102   966  1021   un
  1103   967   968    1
  1104   967  1027   un
  1105   969   970    1
  1106   969   984   un
  1107   969  1011   un
  1108   971   972   un
  1109   971   984   un
  1110   971  1003   un
  1111   972   973    1
  1112   972   977   un
  1113   974   975   un
  1114   974   982   un
  1115   975   976    1
  1116   975   979   un
  1117   977   978    1
  1118   977  1008   un
  1119   979   980    1
  1120   981   985   un
  1121   982   985   un
  1122   983   985   un
  1123   983  1015   un
  1124   984   985   un
  1125   986   987    1
  1126   986  1010   un
  1127   986  1050   un
  1128   988   989   un
  1129   988  1010   un
  1130   988  1038   un
  1131   989   990    1
  1132   989   991   un
  1133   991   992    1
  1134   991   993   un
  1135   993   994    1
  1136   993  1044   un
  1137   995   996   un
  1138   995  1012   un
  1139   995  1025   un
  1140   996   997    1
  1141   996  1031   un
  1142   998   999    1
  1143   998  1013   un
  1144  1000  1001   un
  1145  1000  1013   un
  1146  1001  1002    1
  1147  1001  1006   un
  1148  1003  1004   un
  1149  1003  1011   un
  1150  1004  1005    1
  1151  1004  1008   un
  1152  1006  1007    1
  1153  1008  1009    1
  1154  1010  1014   un
  1155  1011  1014   un
  1156  1012  1014   un
  1157  1012  1019   un
  1158  1013  1014   un
  1159  1033  1039   un
  1160  1033  1045   un
  1161  1034  1040   un
  1162  1034  1046   un
  1163  1035  1041   un
  1164  1035  1047   un
  1165  1036  1042   un
  1166  1036  1048   un
  1167  1037  1043   un
  1168  1037  1049   un
  1169  1038  1044   un
  1170  1038  1050   un
  1171  1051  1052    1
  1172  1051  1075   un
  1173  1051  1257   un
  1174  1053  1054   un
  1175  1053  1075   un
  1176  1053  1245   un
  1177  1054  1055    1
  1178  1054  1056   un
  1179  1056  1057    1
  1180  1056  1058   un
  1181  1058  1059    1
  1182  1058  1251   un
  1183  1060  1061   un
  1184  1060  1077   un
  1185  1060  1232   un
  1186  1061  1062    1
  1187  1061  1238   un
  1188  1063  1064    1
  1189  1063  1078   un
  1190  1063  1105   un
  1191  1065  1066   un
  1192  1065  1078   un
  1193  1065  1097   un
  1194  1066  1067    1
  1195  1066  1071   un
  1196  1068  1069   un
  1197  1068  1076   un
  1198  1068  1123   un
  1199  1069  1070    1
  1200  1069  1073   un
  1201  1071  1072    1
  1202  1071  1102   un
  1203  1073  1074    1
  1204  1073  1129   un
  1205  1075  1079   un
  1206  1076  1079   un
  1207  1076  1121   un
  1208  1077  1079   un
  1209  1077  1226   un
  1210  1078  1079   un
  1211  1080  1081    1
  1212  1080  1104   un
  1213  1080  1258   un
  1214  1082  1083   un
  1215  1082  1104   un
  1216  1082  1246   un
  1217  1083  1084    1
  1218  1083  1085   un
  1219  1085  1086    1
  1220  1085  1087   un
  1221  1087  1088    1
  1222  1087  1252   un
  1223  1089  1090   un
  1224  1089  1106   un
  1225  1089  1236   un
  1226  1090  1091    1
  1227  1090  1242   un
  1228  1092  1093    1
  1229  1092  1107   un
  1230  1092  1192   un
  1231  1094  1095   un
  1232  1094  1107   un
  1233  1094  1184   un
  1234  1095  1096    1
  1235  1095  1100   un
  1236  1097  1098   un
  1237  1097  1105   un
  1238  1098  1099    1
  1239  1098  1102   un
  1240  1100  1101    1
  1241  1100  1189   un
  1242  1102  1103    1
  1243  1104  1108   un
  1244  1105  1108   un
  1245  1106  1108   un
  1246  1106  1230   un
  1247  1107  1108   un
  1248  1109  1110    1
  1249  1109  1133   un
  1250  1109  1259   un
  1251  1111  1112   un
  1252  1111  1133   un
  1253  1111  1247   un
  1254  1112  1113    1
  1255  1112  1114   un
  1256  1114  1115    1
  1257  1114  1116   un
  1258  1116  1117    1
  1259  1116  1253   un
  1260  1118  1119   un
  1261  1118  1135   un
  1262  1118  1234   un
  1263  1119  1120    1
  1264  1119  1240   un
  1265  1121  1122    1
  1266  1121  1136   un
  1267  1123  1124   un
  1268  1123  1136   un
  1269  1124  1125    1
  1270  1124  1129   un
  1271  1126  1127   un
  1272  1126  1134   un
  1273  1126  1152   un
  1274  1127  1128    1
  1275  1127  1131   un
  1276  1129  1130    1
  1277  1131  1132    1
  1278  1131  1158   un
  1279  1133  1137   un
  1280  1134  1137   un
  1281  1134  1150   un
  1282  1135  1137   un
  1283  1135  1228   un
  1284  1136  1137   un
  1285  1138  1139    1
  1286  1138  1162   un
  1287  1138  1255   un
  1288  1140  1141   un
  1289  1140  1162   un
  1290  1140  1243   un
  1291  1141  1142    1
  1292  1141  1143   un
  1293  1143  1144    1
  1294  1143  1145   un
  1295  1145  1146    1
  1296  1145  1249   un
  1297  1147  1148   un
  1298  1147  1164   un
  1299  1147  1233   un
  1300  1148  1149    1
  1301  1148  1239   un
  1302  1150  1151    1
  1303  1150  1165   un
  1304  1152  1153   un
  1305  1152  1165   un
  1306  1153  1154    1
  1307  1153  1158   un
  1308  1155  1156   un
  1309  1155  1163   un
  1310  1155  1210   un
  1311  1156  1157    1
  1312  1156  1160   un
  1313  1158  1159    1
  1314  1160  1161    1
  1315  1160  1216   un
  1316  1162  1166   un
  1317  1163  1166   un
  1318  1163  1208   un
  1319  1164  1166   un
  1320  1164  1227   un
  1321  1165  1166   un
  1322  1167  1168    1
  1323  1167  1191   un
  1324  1167  1256   un
  1325  1169  1170   un
  1326  1169  1191   un
  1327  1169  1244   un
  1328  1170  1171    1
  1329  1170  1172   un
  1330  1172  1173    1
  1331  1172  1174   un
  1332  1174  1175    1
  1333  1174  1250   un
  1334  1176  1177   un
  1335  1176  1193   un
  1336  1176  1231   un
  1337  1177  1178    1
  1338  1177  1237   un
  1339  1179  1180    1
  1340  1179  1194   un
  1341  1179  1221   un
  1342  1181  1182   un
  1343  1181  1194   un
  1344  1181  1213   un
  1345  1182  1183    1
  1346  1182  1187   un
  1347  1184  1185   un
  1348  1184  1192   un
  1349  1185  1186    1
  1350  1185  1189   un
  1351  1187  1188    1
  1352  1187  1218   un
  1353  1189  1190    1
  1354  1191  1195   un
  1355  1192  1195   un
  1356  1193  1195   un
  1357  1193  1225   un
  1358  1194  1195   un
  1359  1196  1197    1
  1360  1196  1220   un
  1361  1196  1260   un
  1362  1198  1199   un
  1363  1198  1220   un
  1364  1198  1248   un
  1365  1199  1200    1
  1366  1199  1201   un
  1367  1201  1202    1
  1368  1201  1203   un
  1369  1203  1204    1
  1370  1203  1254   un
  1371  1205  1206   un
  1372  1205  1222   un
  1373  1205  1235   un
  1374  1206  1207    1
  1375  1206  1241   un
  1376  1208  1209    1
  1377  1208  1223   un
  1378  1210  1211   un
  1379  1210  1223   un
  1380  1211  1212    1
  1381  1211  1216   un
  1382  1213  1214   un
  1383  1213  1221   un
  1384  1214  1215    1
  1385  1214  1218   un
  1386  1216  1217    1
  1387  1218  1219    1
  1388  1220  1224   un
  1389  1221  1224   un
  1390  1222  1224   un
  1391  1222  1229   un
  1392  1223  1224   un
  1393  1243  1249   un
  1394  1243  1255   un
  1395  1244  1250   un
  1396  1244  1256   un
  1397  1245  1251   un
  1398  1245  1257   un
  1399  1246  1252   un
  1400  1246  1258   un
  1401  1247  1253   un
  1402  1247  1259   un
  1403  1248  1254   un
  1404  1248  1260   un
  1405  1261  1262    1
  1406  1261  1285   un
  1407  1261  1467   un
  1408  1263  1264   un
  1409  1263  1285   un
  1410  1263  1455   un
  1411  1264  1265    1
  1412  1264  1266   un
  1413  1266  1267    1
  1414  1266  1268   un
  1415  1268  1269    1
  1416  1268  1461   un
  1417  1270  1271   un
  1418  1270  1287   un
  1419  1270  1442   un
  1420  1271  1272    1
  1421  1271  1448   un
  1422  1273  1274    1
  1423  1273  1288   un
  1424  1273  1315   un
  1425  1275  1276   un
  1426  1275  1288   un
  1427  1275  1307   un
  1428  1276  1277    1
  1429  1276  1281   un
  1430  1278  1279   un
  1431  1278  1286   un
  1432  1278  1333   un
  1433  1279  1280    1
  1434  1279  1283   un
  1435  1281  1282    1
  1436  1281  1312   un
  1437  1283  1284    1
  1438  1283  1339   un
  1439  1285  1289   un
  1440  1286  1289   un
  1441  1286  1331   un
  1442  1287  1289   un
  1443  1287  1436   un
  1444  1288  1289   un
  1445  1290  1291    1
  1446  1290  1314   un
  1447  1290  1468   un
  1448  1292  1293   un
  1449  1292  1314   un
  1450  1292  1456   un
  1451  1293  1294    1
  1452  1293  1295   un
  1453  1295  1296    1
  1454  1295  1297   un
  1455  1297  1298    1
  1456  1297  1462   un
  1457  1299  1300   un
  1458  1299  1316   un
  1459  1299  1446   un
  1460  1300  1301    1
  1461  1300  1452   un
  1462  1302  1303    1
  1463  1302  1317   un
  1464  1302  1402   un
  1465  1304  1305   un
  1466  1304  1317   un
  1467  1304  1394   un
  1468  1305  1306    1
  1469  1305  1310   un
  1470  1307  1308   un
  1471  1307  1315   un
  1472  1308  1309    1
  1473  1308  1312   un
  1474  1310  1311    1
  1475  1310  1399   un
  1476  1312  1313    1
  1477  1314  1318   un
  1478  1315  1318   un
  1479  1316  1318   un
  1480  1316  1440   un
  1481  1317  1318   un
  1482  1319  1320    1
  1483  1319  1343   un
  1484  1319  1469   un
  1485  1321  1322   un
  1486  1321  1343   un
  1487  1321  1457   un
  1488  1322  1323    1
  1489  1322  1324   un
  1490  1324  1325    1
  1491  1324  1326   un
  1492  1326  1327    1
  1493  1326  1463   un
  1494  1328  1329   un
  1495  1328  1345   un
  1496  1328  1444   un
  1497  1329  1330    1
  1498  1329  1450   un
  1499  1331  1332    1
  1500  1331  1346   un
  1501  1333  1334   un
  1502  1333  1346   un
  1503  1334  1335    1
  1504  1334  1339   un
  1505  1336  1337   un
  1506  1336  1344   un
  1507  1336  1362   un
  1508  1337  1338    1
  1509  1337  1341   un
  1510  1339  1340    1
  1511  1341  1342    1
  1512  1341  1368   un
  1513  1343  1347   un
  1514  1344  1347   un
  1515  1344  1360   un
  1516  1345  1347   un
  1517  1345  1438   un
  1518  1346  1347   un
  1519  1348  1349    1
  1520  1348  1372   un
  1521  1348  1465   un
  1522  1350  1351   un
  1523  1350  1372   un
  1524  1350  1453   un
  1525  1351  1352    1
  1526  1351  1353   un
  1527  1353  1354    1
  1528  1353  1355   un
  1529  1355  1356    1
  1530  1355  1459   un
  1531  1357  1358   un
  1532  1357  1374   un
  1533  1357  1443   un
  1534  1358  1359    1
  1535  1358  1449   un
  1536  1360  1361    1
  1537  1360  1375   un
  1538  1362  1363   un
  1539  1362  1375   un
  1540  1363  1364    1
  1541  1363  1368   un
  1542  1365  1366   un
  1543  1365  1373   un
  1544  1365  1420   un
  1545  1366  1367    1
  1546  1366  1370   un
  1547  1368  1369    1
  1548  1370  1371    1
  1549  1370  1426   un
  1550  1372  1376   un
  1551  1373  1376   un
  1552  1373  1418   un
  1553  1374  1376   un
  1554  1374  1437   un
  1555  1375  1376   un
  1556  1377  1378    1
  1557  1377  1401   un
  1558  1377  1466   un
  1559  1379  1380   un
  1560  1379  1401   un
  1561  1379  1454   un
  1562  1380  1381    1
  1563  1380  1382   un
  1564  1382  1383    1
  1565  1382  1384   un
  1566  1384  1385    1
  1567  1384  1460   un
  1568  1386  1387   un
  1569  1386  1403   un
  1570  1386  1441   un
  1571  1387  1388    1
  1572  1387  1447   un
  1573  1389  1390    1
  1574  1389  1404   un
  1575  1389  1431   un
  1576  1391  1392   un
  1577  1391  1404   un
  1578  1391  1423   un
  1579  1392  1393    1
  1580  1392  1397   un
  1581  1394  1395   un
  1582  1394  1402   un
  1583  1395  1396    1
  1584  1395  1399   un
  1585  1397  1398    1
  1586  1397  1428   un
  1587  1399  1400    1
  1588  1401  1405   un
  1589  1402  1405   un
  1590  1403  1405   un
  1591  1403  1435   un
  1592  1404  1405   un
  1593  1406  1407    1
  1594  1406  1430   un
  1595  1406  1470   un
  1596  1408  1409   un
  1597  1408  1430   un
  1598  1408  1458   un
  1599  1409  1410    1
  1600  1409  1411   un
  1601  1411  1412    1
  1602  1411  1413   un
  1603  1413  1414    1
  1604  1413  1464   un
  1605  1415  1416   un
  1606  1415  1432   un
  1607  1415  1445   un
  1608  1416  1417    1
  1609  1416  1451   un
  1610  1418  1419    1
  1611  1418  1433   un
  1612  1420  1421   un
  1613  1420  1433   un
  1614  1421  1422    1
  1615  1421  1426   un
  1616  1423  1424   un
  1617  1423  1431   un
  1618  1424  1425    1
  1619  1424  1428   un
  1620  1426  1427    1
  1621  1428  1429    1
  1622  1430  1434   un
  1623  1431  1434   un
  1624  1432  1434   un
  1625  1432  1439   un
  1626  1433  1434   un
  1627  1453  1459   un
  1628  1453  1465   un
  1629  1454  1460   un
  1630  1454  1466   un
  1631  1455  1461   un
  1632  1455  1467   un
  1633  1456  1462   un
  1634  1456  1468   un
  1635  1457  1463   un
  1636  1457  1469   un
  1637  1458  1464   un
  1638  1458  1470   un
  1639  1471  1472    1
  1640  1471  1495   un
  1641  1471  1677   un
  1642  1473  1474   un
  1643  1473  1495   un
  1644  1473  1665   un
  1645  1474  1475    1
  1646  1474  1476   un
  1647  1476  1477    1
  1648  1476  1478   un
  1649  1478  1479    1
  1650  1478  1671   un
  1651  1480  1481   un
  1652  1480  1497   un
  1653  1480  1652   un
  1654  1481  1482    1
  1655  1481  1658   un
  1656  1483  1484    1
  1657  1483  1498   un
  1658  1483  1525   un
  1659  1485  1486   un
  1660  1485  1498   un
  1661  1485  1517   un
  1662  1486  1487    1
  1663  1486  1491   un
  1664  1488  1489   un
  1665  1488  1496   un
  1666  1488  1543   un
  1667  1489  1490    1
  1668  1489  1493   un
  1669  1491  1492    1
  1670  1491  1522   un
  1671  1493  1494    1
  1672  1493  1549   un
  1673  1495  1499   un
  1674  1496  1499   un
  1675  1496  1541   un
  1676  1497  1499   un
  1677  1497  1646   un
  1678  1498  1499   un
  1679  1500  1501    1
  1680  1500  1524   un
  1681  1500  1678   un
  1682  1502  1503   un
  1683  1502  1524   un
  1684  1502  1666   un
  1685  1503  1504    1
  1686  1503  1505   un
  1687  1505  1506    1
  1688  1505  1507   un
  1689  1507  1508    1
  1690  1507  1672   un
  1691  1509  1510   un
  1692  1509  1526   un
  1693  1509  1656   un
  1694  1510  1511    1
  1695  1510  1662   un
  1696  1512  1513    1
  1697  1512  1527   un
  1698  1512  1612   un
  1699  1514  1515   un
  1700  1514  1527   un
  1701  1514  1604   un
  1702  1515  1516    1
  1703  1515  1520   un
  1704  1517  1518   un
  1705  1517  1525   un
  1706  1518  1519    1
  1707  1518  1522   un
  1708  1520  1521    1
  1709  1520  1609   un
  1710  1522  1523    1
  1711  1524  1528   un
  1712  1525  1528   un
  1713  1526  1528   un
  1714  1526  1650   un
  1715  1527  1528   un
  1716  1529  1530    1
  1717  1529  1553   un
  1718  1529  1679   un
  1719  1531  1532   un
  1720  1531  1553   un
  1721  1531  1667   un
  1722  1532  1533    1
  1723  1532  1534   un
  1724  1534  1535    1
  1725  1534  1536   un
  1726  1536  1537    1
  1727  1536  1673   un
  1728  1538  1539   un
  1729  1538  1555   un
  1730  1538  1654   un
  1731  1539  1540    1
  1732  1539  1660   un
  1733  1541  1542    1
  1734  1541  1556   un
  1735  1543  1544   un
  1736  1543  1556   un
  1737  1544  1545    1
  1738  1544  1549   un
  1739  1546  1547   un
  1740  1546  1554   un
  1741  1546  1572   un
  1742  1547  1548    1
  1743  1547  1551   un
  1744  1549  1550    1
  1745  1551  1552    1
  1746  1551  1578   un
  1747  1553  1557   un
  1748  1554  1557   un
  1749  1554  1570   un
  1750  1555  1557   un
  1751  1555  1648   un
  1752  1556  1557   un
  1753  1558  1559    1
  1754  1558  1582   un
  1755  1558  1675   un
  1756  1560  1561   un
  1757  1560  1582   un
  1758  1560  1663   un
  1759  1561  1562    1
  1760  1561  1563   un
  1761  1563  1564    1
  1762  1563  1565   un
  1763  1565  1566    1
  1764  1565  1669   un
  1765  1567  1568   un
  1766  1567  1584   un
  1767  1567  1653   un
  1768  1568  1569    1
  1769  1568  1659   un
  1770  1570  1571    1
  1771  1570  1585   un
  1772  1572  1573   un
  1773  1572  1585   un
  1774  1573  1574    1
  1775  1573  1578   un
  1776  1575  1576   un
  1777  1575  1583   un
  1778  1575  1630   un
  1779  1576  1577    1
  1780  1576  1580   un
  1781  1578  1579    1
  1782  1580  1581    1
  1783  1580  1636   un
  1784  1582  1586   un
  1785  1583  1586   un
  1786  1583  1628   un
  1787  1584  1586   un
  1788  1584  1647   un
  1789  1585  1586   un
  1790  1587  1588    1
  1791  1587  1611   un
  1792  1587  1676   un
  1793  1589  1590   un
  1794  1589  1611   un
  1795  1589  1664   un
  1796  1590  1591    1
  1797  1590  1592   un
  1798  1592  1593    1
  1799  1592  1594   un
  1800  1594  1595    1
  1801  1594  1670   un
  1802  1596  1597   un
  1803  1596  1613   un
  1804  1596  1651   un
  1805  1597  1598    1
  1806  1597  1657   un
  1807  1599  1600    1
  1808  1599  1614   un
  1809  1599  1641   un
  1810  1601  1602   un
  1811  1601  1614   un
  1812  1601  1633   un
  1813  1602  1603    1
  1814  1602  1607   un
  1815  1604  1605   un
  1816  1604  1612   un
  1817  1605  1606    1
  1818  1605  1609   un
  1819  1607  1608    1
  1820  1607  1638   un
  1821  1609  1610    1
  1822  1611  1615   un
  1823  1612  1615   un
  1824  1613  1615   un
  1825  1613  1645   un
  1826  1614  1615   un
  1827  1616  1617    1
  1828  1616  1640   un
  1829  1616  1680   un
  1830  1618  1619   un
  1831  1618  1640   un
  1832  1618  1668   un
  1833  1619  1620    1
  1834  1619  1621   un
  1835  1621  1622    1
  1836  1621  1623   un
  1837  1623  1624    1
  1838  1623  1674   un
  1839  1625  1626   un
  1840  1625  1642   un
  1841  1625  1655   un
  1842  1626  1627    1
  1843  1626  1661   un
  1844  1628  1629    1
  1845  1628  1643   un
  1846  1630  1631   un
  1847  1630  1643   un
  1848  1631  1632    1
  1849  1631  1636   un
  1850  1633  1634   un
  1851  1633  1641   un
  1852  1634  1635    1
  1853  1634  1638   un
  1854  1636  1637    1
  1855  1638  1639    1
  1856  1640  1644   un
  1857  1641  1644   un
  1858  1642  1644   un
  1859  1642  1649   un
  1860  1643  1644   un
  1861  1663  1669   un
  1862  1663  1675   un
  1863  1664  1670   un
  1864  1664  1676   un
  1865  1665  1671   un
  1866  1665  1677   un
  1867  1666  1672   un
  1868  1666  1678   un
  1869  1667  1673   un
  1870  1667  1679   un
  1871  1668  1674   un
  1872  1668  1680   un
  1873  1681  1682    1
  1874  1681  1705   un
  1875  1681  1887   un
  1876  1683  1684   un
  1877  1683  1705   un
  1878  1683  1875   un
  1879  1684  1685    1
  1880  1684  1686   un
  1881  1686  1687    1
  1882  1686  1688   un
  1883  1688  1689    1
  1884  1688  1881   un
  1885  1690  1691   un
  1886  1690  1707   un
  1887  1690  1862   un
  1888  1691  1692    1
  1889  1691  1868   un
  1890  1693  1694    1
  1891  1693  1708   un
  1892  1693  1735   un
  1893  1695  1696   un
  1894  1695  1708   un
  1895  1695  1727   un
  1896  1696  1697    1
  1897  1696  1701   un
  1898  1698  1699   un
  1899  1698  1706   un
  1900  1698  1753   un
  1901  1699  1700    1
  1902  1699  1703   un
  1903  1701  1702    1
  1904  1701  1732   un
  1905  1703  1704    1
  1906  1703  1759   un
  1907  1705  1709   un
  1908  1706  1709   un
  1909  1706  1751   un
  1910  1707  1709   un
  1911  1707  1856   un
  1912  1708  1709   un
  1913  1710  1711    1
  1914  1710  1734   un
  1915  1710  1888   un
  1916  1712  1713   un
  1917  1712  1734   un
  1918  1712  1876   un
  1919  1713  1714    1
  1920  1713  1715   un
  1921  1715  1716    1
  1922  1715  1717   un
  1923  1717  1718    1
  1924  1717  1882   un
  1925  1719  1720   un
  1926  1719  1736   un
  1927  1719  1866   un
  1928  1720  1721    1
  1929  1720  1872   un
  1930  1722  1723    1
  1931  1722  1737   un
  1932  1722  1822   un
  1933  1724  1725   un
  1934  1724  1737   un
  1935  1724  1814   un
  1936  1725  1726    1
  1937  1725  1730   un
  1938  1727  1728   un
  1939  1727  1735   un
  1940  1728  1729    1
  1941  1728  1732   un
  1942  1730  1731    1
  1943  1730  1819   un
  1944  1732  1733    1
  1945  1734  1738   un
  1946  1735  1738   un
  1947  1736  1738   un
  1948  1736  1860   un
  1949  1737  1738   un
  1950  1739  1740    1
  1951  1739  1763   un
  1952  1739  1889   un
  1953  1741  1742   un
  1954  1741  1763   un
  1955  1741  1877   un
  1956  1742  1743    1
  1957  1742  1744   un
  1958  1744  1745    1
  1959  1744  1746   un
  1960  1746  1747    1
  1961  1746  1883   un
  1962  1748  1749   un
  1963  1748  1765   un
  1964  1748  1864   un
  1965  1749  1750    1
  1966  1749  1870   un
  1967  1751  1752    1
  1968  1751  1766   un
  1969  1753  1754   un
  1970  1753  1766   un
  1971  1754  1755    1
  1972  1754  1759   un
  1973  1756  1757   un
  1974  1756  1764   un
  1975  1756  1782   un
  1976  1757  1758    1
  1977  1757  1761   un
  1978  1759  1760    1
  1979  1761  1762    1
  1980  1761  1788   un
  1981  1763  1767   un
  1982  1764  1767   un
  1983  1764  1780   un
  1984  1765  1767   un
  1985  1765  1858   un
  1986  1766  1767   un
  1987  1768  1769    1
  1988  1768  1792   un
  1989  1768  1885   un
  1990  1770  1771   un
  1991  1770  1792   un
  1992  1770  1873   un
  1993  1771  1772    1
  1994  1771  1773   un
  1995  1773  1774    1
  1996  1773  1775   un
  1997  1775  1776    1
  1998  1775  1879   un
  1999  1777  1778   un
  2000  1777  1794   un
  2001  1777  1863   un
  2002  1778  1779    1
  2003  1778  1869   un
  2004  1780  1781    1
  2005  1780  1795   un
  2006  1782  1783   un
  2007  1782  1795   un
  2008  1783  1784    1
  2009  1783  1788   un
  2010  1785  1786   un
  2011  1785  1793   un
  2012  1785  1840   un
  2013  1786  1787    1
  2014  1786  1790   un
  2015  1788  1789    1
  2016  1790  1791    1
  2017  1790  1846   un
  2018  1792  1796   un
  2019  1793  1796   un
  2020  1793  1838   un
  2021  1794  1796   un
  2022  1794  1857   un
  2023  1795  1796   un
  2024  1797  1798    1
  2025  1797  1821   un
  2026  1797  1886   un
  2027  1799  1800   un
  2028  1799  1821   un
  2029  1799  1874   un
  2030  1800  1801    1
  2031  1800  1802   un
  2032  1802  1803    1
  2033  1802  1804   un
  2034  1804  1805    1
  2035  1804  1880   un
  2036  1806  1807   un
  2037  1806  1823   un
  2038  1806  1861   un
  2039  1807  1808    1
  2040  1807  1867   un
  2041  1809  1810    1
  2042  1809  1824   un
  2043  1809  1851   un
  2044  1811  1812   un
  2045  1811  1824   un
  2046  1811  1843   un
  2047  1812  1813    1
  2048  1812  1817   un
  2049  1814  1815   un
  2050  1814  1822   un
  2051  1815  1816    1
  2052  1815  1819   un
  2053  1817  1818    1
  2054  1817  1848   un
  2055  1819  1820    1
  2056  1821  1825   un
  2057  1822  1825   un
  2058  1823  1825   un
  2059  1823  1855   un
  2060  1824  1825   un
  2061  1826  1827    1
  2062  1826  1850   un
  2063  1826  1890   un
  2064  1828  1829   un
  2065  1828  1850   un
  2066  1828  1878   un
  2067  1829  1830    1
  2068  1829  1831   un
  2069  1831  1832    1
  2070  1831  1833   un
  2071  1833  1834    1
  2072  1833  1884   un
  2073  1835  1836   un
  2074  1835  1852   un
  2075  1835  1865   un
  2076  1836  1837    1
  2077  1836  1871   un
  2078  1838  1839    1
  2079  1838  1853   un
  2080  1840  1841   un
  2081  1840  1853   un
  2082  1841  1842    1
  2083  1841  1846   un
  2084  1843  1844   un
  2085  1843  1851   un
  2086  1844  1845    1
  2087  1844  1848   un
  2088  1846  1847    1
  2089  1848  1849    1
  2090  1850  1854   un
  2091  1851  1854   un
  2092  1852  1854   un
  2093  1852  1859   un
  2094  1853  1854   un
  2095  1873  1879   un
  2096  1873  1885   un
  2097  1874  1880   un
  2098  1874  1886   un
  2099  1875  1881   un
  2100  1875  1887   un
  2101  1876  1882   un
  2102  1876  1888   un
  2103  1877  1883   un
  2104  1877  1889   un
  2105  1878  1884   un
  2106  1878  1890   un
  2107  1891  1892    1
  2108  1891  1915   un
  2109  1891  2097   un
  2110  1893  1894   un
  2111  1893  1915   un
  2112  1893  2085   un
  2113  1894  1895    1
  2114  1894  1896   un
  2115  1896  1897    1
  2116  1896  1898   un
  2117  1898  1899    1
  2118  1898  2091   un
  2119  1900  1901   un
  2120  1900  1917   un
  2121  1900  2072   un
  2122  1901  1902    1
  2123  1901  2078   un
  2124  1903  1904    1
  2125  1903  1918   un
  2126  1903  1945   un
  2127  1905  1906   un
  2128  1905  1918   un
  2129  1905  1937   un
  2130  1906  1907    1
  2131  1906  1911   un
  2132  1908  1909   un
  2133  1908  1916   un
  2134  1908  1963   un
  2135  1909  1910    1
  2136  1909  1913   un
  2137  1911  1912    1
  2138  1911  1942   un
  2139  1913  1914    1
  2140  1913  1969   un
  2141  1915  1919   un
  2142  1916  1919   un
  2143  1916  1961   un
  2144  1917  1919   un
  2145  1917  2066   un
  2146  1918  1919   un
  2147  1920  1921    1
  2148  1920  1944   un
  2149  1920  2098   un
  2150  1922  1923   un
  2151  1922  1944   un
  2152  1922  2086   un
  2153  1923  1924    1
  2154  1923  1925   un
  2155  1925  1926    1
  2156  1925  1927   un
  2157  1927  1928    1
  2158  1927  2092   un
  2159  1929  1930   un
  2160  1929  1946   un
  2161  1929  2076   un
  2162  1930  1931    1
  2163  1930  2082   un
  2164  1932  1933    1
  2165  1932  1947   un
  2166  1932  2032   un
  2167  1934  1935   un
  2168  1934  1947   un
  2169  1934  2024   un
  2170  1935  1936    1
  2171  1935  1940   un
  2172  1937  1938   un
  2173  1937  1945   un
  2174  1938  1939    1
  2175  1938  1942   un
  2176  1940  1941    1
  2177  1940  2029   un
  2178  1942  1943    1
  2179  1944  1948   un
  2180  1945  1948   un
  2181  1946  1948   un
  2182  1946  2070   un
  2183  1947  1948   un
  2184  1949  1950    1
  2185  1949  1973   un
  2186  1949  2099   un
  2187  1951  1952   un
  2188  1951  1973   un
  2189  1951  2087   un
  2190  1952  1953    1
  2191  1952  1954   un
  2192  1954  1955    1
  2193  1954  1956   un
  2194  1956  1957    1
  2195  1956  2093   un
  2196  1958  1959   un
  2197  1958  1975   un
  2198  1958  2074   un
  2199  1959  1960    1
  2200  1959  2080   un
  2201  1961  1962    1
  2202  1961  1976   un
  2203  1963  1964   un
  2204  1963  1976   un
  2205  1964  1965    1
  2206  1964  1969   un
  2207  1966  1967   un
  2208  1966  1974   un
  2209  1966  1992   un
  2210  1967  1968    1
  2211  1967  1971   un
  2212  1969  1970    1
  2213  1971  1972    1
  2214  1971  1998   un
  2215  1973  1977   un
  2216  1974  1977   un
  2217  1974  1990   un
  2218  1975  1977   un
  2219  1975  2068   un
  2220  1976  1977   un
  2221  1978  1979    1
  2222  1978  2002   un
  2223  1978  2095   un
  2224  1980  1981   un
  2225  1980  2002   un
  2226  1980  2083   un
  2227  1981  1982    1
  2228  1981  1983   un
  2229  1983  1984    1
  2230  1983  1985   un
  2231  1985  1986    1
  2232  1985  2089   un
  2233  1987  1988   un
  2234  1987  2004   un
  2235  1987  2073   un
  2236  1988  1989    1
  2237  1988  2079   un
  2238  1990  1991    1
  2239  1990  2005   un
  2240  1992  1993   un
  2241  1992  2005   un
  2242  1993  1994    1
  2243  1993  1998   un
  2244  1995  1996   un
  2245  1995  2003   un
  2246  1995  2050   un
  2247  1996  1997    1
  2248  1996  2000   un
  2249  1998  1999    1
  2250  2000  2001    1
  2251  2000  2056   un
  2252  2002  2006   un
  2253  2003  2006   un
  2254  2003  2048   un
  2255  2004  2006   un
  2256  2004  2067   un
  2257  2005  2006   un
  2258  2007  2008    1
  2259  2007  2031   un
  2260  2007  2096   un
  2261  2009  2010   un
  2262  2009  2031   un
  2263  2009  2084   un
  2264  2010  2011    1
  2265  2010  2012   un
  2266  2012  2013    1
  2267  2012  2014   un
  2268  2014  2015    1
  2269  2014  2090   un
  2270  2016  2017   un
  2271  2016  2033   un
  2272  2016  2071   un
  2273  2017  2018    1
  2274  2017  2077   un
  2275  2019  2020    1
  2276  2019  2034   un
  2277  2019  2061   un
  2278  2021  2022   un
  2279  2021  2034   un
  2280  2021  2053   un
  2281  2022  2023    1
  2282  2022  2027   un
  2283  2024  2025   un
  2284  2024  2032   un
  2285  2025  2026    1
  2286  2025  2029   un
  2287  2027  2028    1
  2288  2027  2058   un
  2289  2029  2030    1
  2290  2031  2035   un
  2291  2032  2035   un
  2292  2033  2035   un
  2293  2033  2065   un
  2294  2034  2035   un
  2295  2036  2037    1
  2296  2036  2060   un
  2297  2036  2100   un
  2298  2038  2039   un
  2299  2038  2060   un
  2300  2038  2088   un
  2301  2039  2040    1
  2302  2039  2041   un
  2303  2041  2042    1
  2304  2041  2043   un
  2305  2043  2044    1
  2306  2043  2094   un
  2307  2045  2046   un
  2308  2045  2062   un
  2309  2045  2075   un
  2310  2046  2047    1
  2311  2046  2081   un
  2312  2048  2049    1
  2313  2048  2063   un
  2314  2050  2051   un
  2315  2050  2063   un
  2316  2051  2052    1
  2317  2051  2056   un
  2318  2053  2054   un
  2319  2053  2061   un
  2320  2054  2055    1
  2321  2054  2058   un
  2322  2056  2057    1
  2323  2058  2059    1
  2324  2060  2064   un
  2325  2061  2064   un
  2326  2062  2064   un
  2327  2062  2069   un
  2328  2063  2064   un
  2329  2083  2089   un
  2330  2083  2095   un
  2331  2084  2090   un
  2332  2084  2096   un
  2333  2085  2091   un
  2334  2085  2097   un
  2335  2086  2092   un
  2336  2086  2098   un
  2337  2087  2093   un
  2338  2087  2099   un
  2339  2088  2094   un
  2340  2088  2100   un
  2341  2113  2114    1
  2342  2113  2115    1
  2343  2113  2117    1
  2344  2113  2118    1
  2345  2114  2116    1
  2346  2114  2118    1
  2347  2115  2116    1
  2348  2115  2117    1
  2349  2116  2117    1
  2350  2116  2118    1
  2351  2119  2120    1
  2352  2119  2121    1
  2353  2119  2123    1
  2354  2119  2124    1
  2355  2120  2122    1
  2356  2120  2124    1
  2357  2121  2122    1
  2358  2121  2123    1
  2359  2122  2123    1
  2360  2122  2124    1
  2361  2125  2126    1
  2362  2125  2127    1
  2363  2125  2129    1
  2364  2125  2130    1
  2365  2126  2128    1
  2366  2126  2130    1
  2367  2127  2128    1
  2368  2127  2129    1
  2369  2128  2129    1
  2370  2128  2130    1
  2371  2131  2132    1
  2372  2131  2133    1
  2373  2131  2135    1
  2374  2131  2136    1
  2375  2132  2134    1
  2376  2132  2136    1
  2377  2133  2134    1
  2378  2133  2135    1
  2379  2134  2135    1
  2380  2134  2136    1
  2381  2137  2138    1
  2382  2137  2139    1
  2383  2137  2141    1
  2384  2137  2142    1
  2385  2138  2140    1
  2386  2138  2142    1
  2387  2139  2140    1
  2388  2139  2141    1
  2389  2140  2141    1
  2390  2140  2142    1
  2391  2143  2144    1
  2392  2143  2145    1
  2393  2143  2147    1
  2394  2143  2148    1
  2395  2144  2146    1
  2396  2144  2148    1
  2397  2145  2146    1
  2398  2145  2147    1
  2399  2146  2147    1
  2400  2146  2148    1
  2401  2149  2150    1
  2402  2149  2151    1
  2403  2149  2153    1
  2404  2149  2154    1
  2405  2150  2152    1
  2406  2150  2154    1
  2407  2151  2152    1
  2408  2151  2153    1
  2409  2152  2153    1
  2410  2152  2154    1
  2411  2155  2156    1
  2412  2155  2157    1
  2413  2155  2159    1
  2414  2155  2160    1
  2415  2156  2158    1
  2416  2156  2160    1
  2417  2157  2158    1
  2418  2157  2159    1
  2419  2158  2159    1
  2420  2158  2160    1
  2421  2161  2162    1
  2422  2161  2163    1
  2423  2161  2165    1
  2424  2161  2166    1
  2425  2162  2164    1
  2426  2162  2166    1
  2427  2163  2164    1
  2428  2163  2165    1
  2429  2164  2165    1
  2430  2164  2166    1
  2431  2167  2168    1
  2432  2167  2169    1
  2433  2167  2171    1
  2434  2167  2172    1
  2435  2168  2170    1
  2436  2168  2172    1
  2437  2169  2170    1
  2438  2169  2171    1
  2439  2170  2171    1
  2440  2170  2172    1
  2441  2173  2174    1
  2442  2173  2175    1
  2443  2173  2177    1
  2444  2173  2178    1
  2445  2174  2176    1
  2446  2174  2178    1
  2447  2175  2176    1
  2448  2175  2177    1
  2449  2176  2177    1
  2450  2176  2178    1
  2451  2179  2180    1
  2452  2179  2181    1
  2453  2179  2183    1
  2454  2179  2184    1
  2455  2180  2182    1
  2456  2180  2184    1
  2457  2181  2182    1
  2458  2181  2183    1
  2459  2182  2183    1
  2460  2182  2184    1
  2461  2185  2186    1
  2462  2185  2187    1
  2463  2185  2189    1
  2464  2185  2190    1
  2465  2186  2188    1
  2466  2186  2190    1
  2467  2187  2188    1
  2468  2187  2189    1
  2469  2188  2189    1
  2470  2188  2190    1
  2471  2191  2192    1
  2472  2191  2193    1
  2473  2191  2195    1
  2474  2191  2196    1
  2475  2192  2194    1
  2476  2192  2196    1
  2477  2193  2194    1
  2478  2193  2195    1
  2479  2194  2195    1
  2480  2194  2196    1
  2481  2197  2198    1
  2482  2197  2199    1
  2483  2197  2201    1
  2484  2197  2202    1
  2485  2198  2200    1
  2486  2198  2202    1
  2487  2199  2200    1
  2488  2199  2201    1
  2489  2200  2201    1
  2490  2200  2202    1
  2491  2203  2204    1
  2492  2203  2205    1
  2493  2203  2207    1
  2494  2203  2208    1
  2495  2204  2206    1
  2496  2204  2208    1
  2497  2205  2206    1
  2498  2205  2207    1
  2499  2206  2207    1
  2500  2206  2208    1
@<TRIPOS>SUBSTRUCTURE
     1 RES1        1 GROUP             0 ****  ****    0          
     2 RES2      211 GROUP             0 ****  ****    0          
     3 RES3      421 GROUP             0 ****  ****    0          
     4 RES4      631 GROUP             0 ****  ****    0          
     5 RES5      841 GROUP             0 ****  ****    0          
     6 RES6     1051 GROUP             0 ****  ****    0          
     7 RES7     1261 GROUP             0 ****  ****    0          
     8 RES8     1471 GROUP             0 ****  ****    0          
     9 RES9     1681 GROUP             0 ****  ****    0          
    10 RES10    1891 GROUP             0 ****  ****    0          
    11 RES11    2101 GROUP             0 ****  ****    0          
    12 RES12    2102 GROUP             0 ****  ****    0          
    13 RES13    2103 GROUP             0 ****  ****    0          
    14 RES14    2104 GROUP             0 ****  ****    0          
    15 RES15    2105 GROUP             0 ****  ****    0          
    16 RES16    2106 GROUP             0 ****  ****    0          
    17 RES17    2107 GROUP             0 ****  ****    0          
    18 RES18    2108 GROUP             0 ****  ****    0          
    19 RES19    2109 GROUP             0 ****  ****    0          
    20 RES20    2110 GROUP             0 ****  ****    0          
    21 RES21    2111 GROUP             0 ****  ****    0          
    22 RES22    2112 GROUP             0 ****  ****    0          
    23 RES23    2113 GROUP             0 ****  ****    0          
    24 RES24    2119 GROUP             0 ****  ****    0          
    25 RES25    2125 GROUP             0 ****  ****    0          
    26 RES26    2131 GROUP             0 ****  ****    0          
    27 RES27    2137 GROUP             0 ****  ****    0          
    28 RES28    2143 GROUP             0 ****  ****    0          
    29 RES29    2149 GROUP             0 ****  ****    0          
    30 RES30    2155 GROUP             0 ****  ****    0          
    31 RES31    2161 GROUP             0 ****  ****    0          
    32 RES32    2167 GROUP             0 ****  ****    0          
    33 RES33    2173 GROUP             0 ****  ****    0          
    34 RES34    2179 GROUP             0 ****  ****    0          
    35 RES35    2185 GROUP             0 ****  ****    0          
    36 RES36    2191 GROUP             0 ****  ****    0          
    37 RES37    2197 GROUP             0 ****  ****    0          
    38 RES38    2203 GROUP             0 ****  ****    0          
    39 RES39    2209 GROUP             0 ****  ****    0          
    40 RES40    2210 GROUP             0 ****  ****    0          
    41 RES41    2211 GROUP             0 ****  ****    0          
    42 RES42    2212 GROUP             0 ****  ****    0          
    43 RES43    2213 GROUP             0 ****  ****    0          
    44 RES44    2214 GROUP             0 ****  ****    0          
    45 RES45    2215 GROUP             0 ****  ****    0          
    46 RES46    2216 GROUP             0 ****  ****    0          
    47 RES47    2217 GROUP             0 ****  ****    0          
    48 RES48    2218 GROUP             0 ****  ****    0          
    49 RES49    2219 GROUP             0 ****  ****    0          
    50 RES50    2220 GROUP             0 ****  ****    0          
    51 RES51    2221 GROUP             0 ****  ****    0          
    52 RES52    2222 GROUP             0 ****  ****    0          
    53 RES53    2223 GROUP             0 ****  ****    0          
    54 RES54    2224 GROUP             0 ****  ****    0          
    55 RES55    2225 GROUP             0 ****  ****    0          
    56 RES56    2226 GROUP             0 ****  ****    0          
    57 RES57    2227 GROUP             0 ****  ****    0          
    58 RES58    2228 GROUP             0 ****  ****    0          
    59 RES59    2229 GROUP             0 ****  ****    0          
    60 RES60    2230 GROUP             0 ****  ****    0          
    61 RES61    2231 GROUP             0 ****  ****    0          
    62 RES62    2232 GROUP             0 ****  ****    0          
    63 RES63    2233 GROUP             0 ****  ****    0          
    64 RES64    2234 GROUP             0 ****  ****    0          
    65 RES65    2235 GROUP             0 ****  ****    0          
    66 RES66    2236 GROUP             0 ****  ****    0          
    67 RES67    2237 GROUP             0 ****  ****    0          
    68 RES68    2238 GROUP             0 ****  ****    0          
    69 RES69    2239 GROUP             0 ****  ****    0          
    70 RES70    2240 GROUP             0 ****  ****    0          
    71 RES71    2241 GROUP             0 ****  ****    0          
    72 RES72    2242 GROUP             0 ****  ****    0          
    73 RES73    2243 GROUP             0 ****  ****    0          
    74 RES74    2244 GROUP             0 ****  ****    0          
    75 RES75    2245 GROUP             0 ****  ****    0          
    76 RES76    2246 GROUP             0 ****  ****    0          
    77 RES77    2247 GROUP             0 ****  ****    0          
    78 RES78    2248 GROUP             0 ****  ****    0          
    79 RES79    2249 GROUP             0 ****  ****    0          
    80 RES80    2250 GROUP             0 ****  ****    0          
    81 RES81    2251 GROUP             0 ****  ****    0          
    82 RES82    2252 GROUP             0 ****  ****    0          
@<TRIPOS>CRYSIN
   22.9890   22.9890   15.7630   90.0000   90.0000  120.0000   233     1
