@<TRIPOS>MOLECULE
MOL
  4176  4616     0
SMALL
NO_CHARGES
****
ITC 2023. ALL RIGHTS RESERVED.

@<TRIPOS>ATOM
     1 C1      -4.1093   7.2900   7.7296   C         1 RES1   0.0000
     2 H1      -4.6254   8.0605   7.7974   H         1 RES1   0.0000
     3 C6      -1.9253   3.5511   6.7728   C         1 RES1   0.0000
     4 C6      -1.3552   3.8179   8.0449   C         1 RES1   0.0000
     5 H6      -0.7127   3.2385   8.3885   H         1 RES1   0.0000
     6 C2      -3.6449   8.0824   2.9487   C         1 RES1   0.0000
     7 C5      -3.3874   9.3167   3.5194   C         1 RES1   0.0000
     8 H5      -3.7150   9.5417   4.3611   H         1 RES1   0.0000
     9 C2      -6.3680  13.2116   3.5687   C         1 RES1   0.0000
    10 C5      -5.2220  12.9707   4.2907   C         1 RES1   0.0000
    11 H5      -5.2495  12.5526   5.1198   H         1 RES1   0.0000
    12 C6      -4.0380  13.3808   3.7358   C         1 RES1   0.0000
    13 H6      -3.2472  13.2415   4.2040   H         1 RES1   0.0000
    14 C6      -3.9840  14.0080   2.4638   C         1 RES1   0.0000
    15 H6      -3.1610  14.2748   2.1201   H         1 RES1   0.0000
    16 C2      -8.2576  14.4247   8.8231   C         1 RES1   0.0000
    17 C2      -3.1311   7.7273   1.6856   C         1 RES1   0.0000
    18 C6      -2.6288  10.1901   2.7906   C         1 RES1   0.0000
    19 C2      -6.3174  13.8341   2.3056   C         1 RES1   0.0000
    20 C2      -2.6725   5.7517   8.2031   C         1 RES1   0.0000
    21 C5      -5.1197  14.2283   1.7350   C         1 RES1   0.0000
    22 C5      -1.7322   4.9115   8.7737   C         1 RES1   0.0000
    23 N       -7.6220  13.9237   1.8154   N         1 RES1   0.0000
    24 N       -3.2472   6.9263   8.6933   N         1 RES1   0.0000
    25 C1      -4.1093   7.2900  23.4926   C         1 RES1   0.0000
    26 H1      -4.6254   8.0605  23.5604   H         1 RES1   0.0000
    27 C6      -1.9253   3.5511  22.5358   C         1 RES1   0.0000
    28 C6      -1.3552   3.8179  23.8079   C         1 RES1   0.0000
    29 H6      -0.7127   3.2385  24.1515   H         1 RES1   0.0000
    30 C2      -3.6449   8.0824  18.7117   C         1 RES1   0.0000
    31 C5      -3.3874   9.3167  19.2824   C         1 RES1   0.0000
    32 H5      -3.7150   9.5417  20.1241   H         1 RES1   0.0000
    33 C2      -6.3680  13.2116  19.3317   C         1 RES1   0.0000
    34 C5      -5.2220  12.9707  20.0537   C         1 RES1   0.0000
    35 H5      -5.2495  12.5526  20.8828   H         1 RES1   0.0000
    36 C6      -4.0380  13.3808  19.4988   C         1 RES1   0.0000
    37 H6      -3.2472  13.2415  19.9670   H         1 RES1   0.0000
    38 C6      -3.9840  14.0080  18.2268   C         1 RES1   0.0000
    39 H6      -3.1610  14.2748  17.8831   H         1 RES1   0.0000
    40 C2      -8.2576  14.4247  24.5861   C         1 RES1   0.0000
    41 C2      -3.1311   7.7273  17.4486   C         1 RES1   0.0000
    42 C6      -2.6288  10.1901  18.5536   C         1 RES1   0.0000
    43 C2      -6.3174  13.8341  18.0686   C         1 RES1   0.0000
    44 C2      -2.6725   5.7517  23.9661   C         1 RES1   0.0000
    45 C5      -5.1197  14.2283  17.4980   C         1 RES1   0.0000
    46 C5      -1.7322   4.9115  24.5367   C         1 RES1   0.0000
    47 N       -7.6220  13.9237  17.5784   N         1 RES1   0.0000
    48 N       -3.2472   6.9263  24.4563   N         1 RES1   0.0000
    49 C1     -15.6038  27.1990   7.7296   C         1 RES1   0.0000
    50 H1     -16.1199  27.9695   7.7974   H         1 RES1   0.0000
    51 C6     -13.4198  23.4601   6.7728   C         1 RES1   0.0000
    52 C6     -12.8497  23.7269   8.0449   C         1 RES1   0.0000
    53 H6     -12.2072  23.1476   8.3885   H         1 RES1   0.0000
    54 C2     -15.1394  27.9914   2.9487   C         1 RES1   0.0000
    55 C5     -14.8819  29.2258   3.5194   C         1 RES1   0.0000
    56 H5     -15.2095  29.4508   4.3611   H         1 RES1   0.0000
    57 C2     -17.8625  33.1207   3.5687   C         1 RES1   0.0000
    58 C5     -16.7165  32.8798   4.2907   C         1 RES1   0.0000
    59 H5     -16.7440  32.4617   5.1198   H         1 RES1   0.0000
    60 C6     -15.5325  33.2899   3.7358   C         1 RES1   0.0000
    61 H6     -14.7417  33.1505   4.2040   H         1 RES1   0.0000
    62 C6     -15.4785  33.9170   2.4638   C         1 RES1   0.0000
    63 H6     -14.6555  34.1838   2.1201   H         1 RES1   0.0000
    64 C2     -19.7521  34.3338   8.8231   C         1 RES1   0.0000
    65 C2     -14.6256  27.6364   1.6856   C         1 RES1   0.0000
    66 C6     -14.1233  30.0991   2.7906   C         1 RES1   0.0000
    67 C2     -17.8119  33.7432   2.3056   C         1 RES1   0.0000
    68 C2     -14.1670  25.6607   8.2031   C         1 RES1   0.0000
    69 C5     -16.6142  34.1374   1.7350   C         1 RES1   0.0000
    70 C5     -13.2267  24.8206   8.7737   C         1 RES1   0.0000
    71 N      -19.1165  33.8327   1.8154   N         1 RES1   0.0000
    72 N      -14.7417  26.8354   8.6933   N         1 RES1   0.0000
    73 C1     -15.6038  27.1990  23.4926   C         1 RES1   0.0000
    74 H1     -16.1199  27.9695  23.5604   H         1 RES1   0.0000
    75 C6     -13.4198  23.4601  22.5358   C         1 RES1   0.0000
    76 C6     -12.8497  23.7269  23.8079   C         1 RES1   0.0000
    77 H6     -12.2072  23.1476  24.1515   H         1 RES1   0.0000
    78 C2     -15.1394  27.9914  18.7117   C         1 RES1   0.0000
    79 C5     -14.8819  29.2258  19.2824   C         1 RES1   0.0000
    80 H5     -15.2095  29.4508  20.1241   H         1 RES1   0.0000
    81 C2     -17.8625  33.1207  19.3317   C         1 RES1   0.0000
    82 C5     -16.7165  32.8798  20.0537   C         1 RES1   0.0000
    83 H5     -16.7440  32.4617  20.8828   H         1 RES1   0.0000
    84 C6     -15.5325  33.2899  19.4988   C         1 RES1   0.0000
    85 H6     -14.7417  33.1505  19.9670   H         1 RES1   0.0000
    86 C6     -15.4785  33.9170  18.2268   C         1 RES1   0.0000
    87 H6     -14.6555  34.1838  17.8831   H         1 RES1   0.0000
    88 C2     -19.7521  34.3338  24.5861   C         1 RES1   0.0000
    89 C2     -14.6256  27.6364  17.4486   C         1 RES1   0.0000
    90 C6     -14.1233  30.0991  18.5536   C         1 RES1   0.0000
    91 C2     -17.8119  33.7432  18.0686   C         1 RES1   0.0000
    92 C2     -14.1670  25.6607  23.9661   C         1 RES1   0.0000
    93 C5     -16.6142  34.1374  17.4980   C         1 RES1   0.0000
    94 C5     -13.2267  24.8206  24.5367   C         1 RES1   0.0000
    95 N      -19.1165  33.8327  17.5784   N         1 RES1   0.0000
    96 N      -14.7417  26.8354  24.4563   N         1 RES1   0.0000
    97 C1      15.7532   0.5674   2.7790   C         1 RES1   0.0000
    98 H1      16.1624   1.3996   2.7112   H         1 RES1   0.0000
    99 C2      16.6716   0.5614   7.5599   C         1 RES1   0.0000
   100 C5      17.8693   0.9556   6.9893   C         1 RES1   0.0000
   101 H5      17.9004   1.3518   6.1476   H         1 RES1   0.0000
   102 C1      11.6025   1.1865   5.1529   C         1 RES1   0.0000
   103 H1      11.6566   0.6351   4.4073   H         1 RES1   0.0000
   104 C2      12.1888   2.3930   6.7875   C         1 RES1   0.0000
   105 C5      12.8497   3.1157   7.8279   C         1 RES1   0.0000
   106 H5      13.7750   3.1098   7.8957   H         1 RES1   0.0000
   107 C2      14.8440   3.9260   3.7831   C         1 RES1   0.0000
   108 C5      13.8083   3.5776   2.8405   C         1 RES1   0.0000
   109 H5      13.3578   2.7653   2.8878   H         1 RES1   0.0000
   110 C6      12.0957   3.8125   8.7154   C         1 RES1   0.0000
   111 H6      12.5244   4.2963   9.3837   H         1 RES1   0.0000
   112 C6      13.5210   4.5213   1.8522   C         1 RES1   0.0000
   113 H6      12.8531   4.3481   1.2295   H         1 RES1   0.0000
   114 N       15.0176   0.2249   3.8351   N         1 RES1   0.0000
   115 N       15.3521   3.1934   4.8739   N         1 RES1   0.0000
   116 N       15.3670   0.6510   7.0697   N         1 RES1   0.0000
   117 N       12.6842   1.6146   5.7708   N         1 RES1   0.0000
   118 Zn      14.6363   1.4029   5.3846   Z         1 RES1   0.0000
   119 C2       6.3680   0.0610   6.9399   C         1 RES1   0.0000
   120 C5       5.2220   0.3019   6.2180   C         1 RES1   0.0000
   121 H5       5.2495   0.7200   5.3888   H         1 RES1   0.0000
   122 H6       3.2472   0.0311   6.3047   H         1 RES1   0.0000
   123 C1       6.8289   3.8179   5.3557   C         1 RES1   0.0000
   124 H1       6.3783   3.4953   6.1013   H         1 RES1   0.0000
   125 C2       8.1668   3.9134   3.7211   C         1 RES1   0.0000
   126 C5       9.1232   3.7024   2.6808   C         1 RES1   0.0000
   127 H5       9.5807   2.8981   2.6130   H         1 RES1   0.0000
   128 C2      10.8221   2.3804   6.7255   C         1 RES1   0.0000
   129 C5      10.0025   3.1031   7.6682   C         1 RES1   0.0000
   130 H5       9.0738   3.0872   7.6209   H         1 RES1   0.0000
   131 C6       9.3496   4.7038   1.7933   C         1 RES1   0.0000
   132 H6       9.9830   4.5744   1.1250   H         1 RES1   0.0000
   133 C6      10.6761   3.8238   8.6565   C         1 RES1   0.0000
   134 H6      10.1922   4.3156   9.2792   H         1 RES1   0.0000
   135 N        7.7036   0.3796   6.6735   N         1 RES1   0.0000
   136 N       10.4416   1.5741   5.6347   N         1 RES1   0.0000
   137 N        8.2473   0.2900   3.4390   N         1 RES1   0.0000
   138 N        7.7404   3.0952   4.7378   N         1 RES1   0.0000
   139 Zn       8.5332   1.2988   5.1240   Z         1 RES1   0.0000
   140 C1      18.8797   7.2900   7.7296   C         1 RES1   0.0000
   141 H1      18.3636   8.0605   7.7974   H         1 RES1   0.0000
   142 C2      19.7521   5.4842   6.9399   C         1 RES1   0.0000
   143 C5      20.1165   4.3713   6.2180   C         1 RES1   0.0000
   144 H5      19.7407   4.1862   5.3888   H         1 RES1   0.0000
   145 C6      21.0637   3.5511   6.7728   C         1 RES1   0.0000
   146 H6      21.3384   2.7965   6.3047   H         1 RES1   0.0000
   147 C6      21.6338   3.8179   8.0449   C         1 RES1   0.0000
   148 H6      22.2763   3.2385   8.3885   H         1 RES1   0.0000
   149 C2      19.3441   8.0824   2.9487   C         1 RES1   0.0000
   150 C5      19.6016   9.3167   3.5194   C         1 RES1   0.0000
   151 H5      19.2740   9.5417   4.3611   H         1 RES1   0.0000
   152 C1      16.2682   4.0050   5.3557   C         1 RES1   0.0000
   153 H1      16.7728   3.7760   6.1013   H         1 RES1   0.0000
   154 C2      15.5164   5.1159   3.7211   C         1 RES1   0.0000
   155 C5      15.2210   6.0497   2.6808   C         1 RES1   0.0000
   156 H5      15.6888   6.8480   2.6130   H         1 RES1   0.0000
   157 C2      15.5164   8.1819   6.7255   C         1 RES1   0.0000
   158 C5      15.3003   7.1108   7.6682   C         1 RES1   0.0000
   159 H5      15.7785   6.3144   7.6209   H         1 RES1   0.0000
   160 C6      14.2405   5.7450   1.7933   C         1 RES1   0.0000
   161 H6      14.0359   6.3582   1.1250   H         1 RES1   0.0000
   162 C6      14.3394   7.3338   8.6565   C         1 RES1   0.0000
   163 H6      14.1555   6.6688   9.2792   H         1 RES1   0.0000
   164 N       18.8085   6.4817   6.6735   N         1 RES1   0.0000
   165 N       16.4050   8.2556   5.6347   N         1 RES1   0.0000
   166 N       18.6142   6.9973   3.4390   N         1 RES1   0.0000
   167 N       16.4383   5.1557   4.7378   N         1 RES1   0.0000
   168 Zn      17.5976   6.7405   5.1240   Z         1 RES1   0.0000
   169 C1      14.6210  13.3589   2.7790   C         1 RES1   0.0000
   170 H1      13.6957  13.2972   2.7112   H         1 RES1   0.0000
   171 C2      16.6210  13.2116   3.5687   C         1 RES1   0.0000
   172 C5      17.7670  12.9707   4.2907   C         1 RES1   0.0000
   173 H5      17.7395  12.5526   5.1198   H         1 RES1   0.0000
   174 C6      18.9510  13.3808   3.7358   C         1 RES1   0.0000
   175 H6      19.7418  13.2415   4.2040   H         1 RES1   0.0000
   176 C6      19.0050  14.0080   2.4638   C         1 RES1   0.0000
   177 H6      19.8280  14.2748   2.1201   H         1 RES1   0.0000
   178 C2      14.1670  14.1573   7.5599   C         1 RES1   0.0000
   179 C5      13.2267  14.9975   6.9893   C         1 RES1   0.0000
   180 H5      12.8681  14.8262   6.1476   H         1 RES1   0.0000
   181 C1      16.1601   9.4548   5.1529   C         1 RES1   0.0000
   182 H1      16.6107   9.7773   4.4073   H         1 RES1   0.0000
   183 C2      14.8222   9.3592   6.7875   C         1 RES1   0.0000
   184 C5      13.8658   9.5702   7.8279   C         1 RES1   0.0000
   185 H5      13.4083  10.3746   7.8957   H         1 RES1   0.0000
   186 C2      12.1669  10.8922   3.7831   C         1 RES1   0.0000
   187 C5      12.9865  10.1695   2.8405   C         1 RES1   0.0000
   188 H5      13.9152  10.1854   2.8878   H         1 RES1   0.0000
   189 C6      13.6394   8.5688   8.7154   C         1 RES1   0.0000
   190 H6      13.0060   8.6982   9.3837   H         1 RES1   0.0000
   191 C6      12.3129   9.4488   1.8522   C         1 RES1   0.0000
   192 H6      12.7968   8.9570   1.2295   H         1 RES1   0.0000
   193 N       15.2854  12.8931   3.8351   N         1 RES1   0.0000
   194 N       12.5474  11.6985   4.8739   N         1 RES1   0.0000
   195 N       14.7417  12.9827   7.0697   N         1 RES1   0.0000
   196 N       15.2486  10.1775   5.7708   N         1 RES1   0.0000
   197 Zn      14.4558  11.9739   5.3846   Z         1 RES1   0.0000
   198 C1       4.1093   5.9826   2.7790   C         1 RES1   0.0000
   199 H1       4.6254   5.2121   2.7112   H         1 RES1   0.0000
   200 C2       3.2369   7.7884   3.5687   C         1 RES1   0.0000
   201 C5       2.8725   8.9013   4.2907   C         1 RES1   0.0000
   202 H5       3.2483   9.0865   5.1198   H         1 RES1   0.0000
   203 C6       1.9253   9.7216   3.7358   C         1 RES1   0.0000
   204 H6       1.6506  10.4761   4.2040   H         1 RES1   0.0000
   205 C6       1.3552   9.4548   2.4638   C         1 RES1   0.0000
   206 H6       0.7127  10.0341   2.1201   H         1 RES1   0.0000
   207 C2       3.6449   5.1902   7.5599   C         1 RES1   0.0000
   208 C5       3.3874   3.9559   6.9893   C         1 RES1   0.0000
   209 H5       3.7150   3.7309   6.1476   H         1 RES1   0.0000
   210 C1       6.7208   9.2676   5.1529   C         1 RES1   0.0000
   211 H1       6.2162   9.4966   4.4073   H         1 RES1   0.0000
   212 C2       7.4726   8.1567   6.7875   C         1 RES1   0.0000
   213 C5       7.7680   7.2230   7.8279   C         1 RES1   0.0000
   214 H5       7.3002   6.4246   7.8957   H         1 RES1   0.0000
   215 C2       7.4726   5.0907   3.7831   C         1 RES1   0.0000
   216 C5       7.6887   6.1618   2.8405   C         1 RES1   0.0000
   217 H5       7.2105   6.9582   2.8878   H         1 RES1   0.0000
   218 C6       8.7485   7.5276   8.7154   C         1 RES1   0.0000
   219 H6       8.9531   6.9144   9.3837   H         1 RES1   0.0000
   220 C6       8.6496   5.9388   1.8522   C         1 RES1   0.0000
   221 H6       8.8335   6.6038   1.2295   H         1 RES1   0.0000
   222 N        4.1805   6.7909   3.8351   N         1 RES1   0.0000
   223 N        6.5840   5.0170   4.8739   N         1 RES1   0.0000
   224 N        4.3748   6.2753   7.0697   N         1 RES1   0.0000
   225 N        6.5507   8.1169   5.7708   N         1 RES1   0.0000
   226 Zn       5.3914   6.5321   5.3846   Z         1 RES1   0.0000
   227 C1       7.2358  12.7053   7.7296   C         1 RES1   0.0000
   228 H1       6.8266  11.8731   7.7974   H         1 RES1   0.0000
   229 C2       8.3634  14.3637   6.9399   C         1 RES1   0.0000
   230 C5       9.1450  15.2357   6.2180   C         1 RES1   0.0000
   231 H5       9.4933  15.0028   5.3888   H         1 RES1   0.0000
   232 C6       9.3818  16.4661   6.7728   C         1 RES1   0.0000
   233 H6       9.8979  17.0813   6.3047   H         1 RES1   0.0000
   234 C6       8.8657  16.8264   8.0449   C         1 RES1   0.0000
   235 H6       9.0462  17.6726   8.3885   H         1 RES1   0.0000
   236 C2       6.3174  12.7112   2.9487   C         1 RES1   0.0000
   237 C5       5.1197  12.3170   3.5194   C         1 RES1   0.0000
   238 H5       5.0886  11.9208   4.3611   H         1 RES1   0.0000
   239 C1      11.3865  12.0861   5.3557   C         1 RES1   0.0000
   240 H1      11.3324  12.6376   6.1013   H         1 RES1   0.0000
   241 C2      10.8002  10.8796   3.7211   C         1 RES1   0.0000
   242 C5      10.1393  10.1569   2.6808   C         1 RES1   0.0000
   243 H5       9.2140  10.1629   2.6130   H         1 RES1   0.0000
   244 C2       8.1450   9.3466   6.7255   C         1 RES1   0.0000
   245 C5       9.1807   9.6950   7.6682   C         1 RES1   0.0000
   246 H5       9.6312  10.5073   7.6209   H         1 RES1   0.0000
   247 C6      10.8933   9.4601   1.7933   C         1 RES1   0.0000
   248 H6      10.4646   8.9763   1.1250   H         1 RES1   0.0000
   249 C6       9.4680   8.7513   8.6565   C         1 RES1   0.0000
   250 H6      10.1359   8.9245   9.2792   H         1 RES1   0.0000
   251 N        7.9714  13.0477   6.6735   N         1 RES1   0.0000
   252 N        7.6369  10.0793   5.6347   N         1 RES1   0.0000
   253 N        7.6220  12.6216   3.4390   N         1 RES1   0.0000
   254 N       10.3048  11.6580   4.7378   N         1 RES1   0.0000
   255 Zn       8.3527  11.8697   5.1240   Z         1 RES1   0.0000
   256 C1       4.2587   7.2037   8.0334   C         1 RES1   0.0000
   257 C1      14.6210   0.0862   8.0334   C         1 RES1   0.0000
   258 C1      15.6038  12.6190   8.0334   C         1 RES1   0.0000
   259 C1      18.7303   6.0689   2.4753   C         1 RES1   0.0000
   260 C1       8.3680  13.1864   2.4753   C         1 RES1   0.0000
   261 C1       7.3852   0.6536   2.4753   C         1 RES1   0.0000
   262 C2       3.1311   5.5453   8.8231   C         1 RES1   0.0000
   263 C2      14.7314  14.4247   8.8231   C         1 RES1   0.0000
   264 C2      19.8579   7.7273   1.6856   C         1 RES1   0.0000
   265 C2       6.3680  13.3337   1.6856   C         1 RES1   0.0000
   266 C6       2.6288   3.0825   7.7181   C         1 RES1   0.0000
   267 C6      19.0050   0.7353   7.7181   C         1 RES1   0.0000
   268 C6      12.8497  16.0911   7.7181   C         1 RES1   0.0000
   269 C6      20.3602  10.1901   2.7906   C         1 RES1   0.0000
   270 C6       3.9840  12.5374   2.7906   C         1 RES1   0.0000
   271 C2      16.6716  13.8341   2.3056   C         1 RES1   0.0000
   272 C2       2.6725   7.5209   2.3056   C         1 RES1   0.0000
   273 C2      20.3165   5.7517   8.2031   C         1 RES1   0.0000
   274 C2       7.8496  14.7187   8.2031   C         1 RES1   0.0000
   275 C5      17.8693  14.2283   1.7350   C         1 RES1   0.0000
   276 C5       1.7322   8.3611   1.7350   C         1 RES1   0.0000
   277 C5      21.2568   4.9115   8.7737   C         1 RES1   0.0000
   278 C5       8.1071  15.9531   8.7737   C         1 RES1   0.0000
   279 N       15.3670  13.9237   1.8154   N         1 RES1   0.0000
   280 N        3.2472   6.3463   1.8154   N         1 RES1   0.0000
   281 N       19.7418   6.9263   8.6933   N         1 RES1   0.0000
   282 N        7.1197  13.6337   8.6933   N         1 RES1   0.0000
   283 C1      15.7532   0.5674  18.5420   C         1 RES1   0.0000
   284 H1      16.1624   1.3996  18.4742   H         1 RES1   0.0000
   285 C2      16.6716   0.5614  23.3229   C         1 RES1   0.0000
   286 C5      17.8693   0.9556  22.7523   C         1 RES1   0.0000
   287 H5      17.9004   1.3518  21.9106   H         1 RES1   0.0000
   288 C1      11.6025   1.1865  20.9159   C         1 RES1   0.0000
   289 H1      11.6566   0.6351  20.1703   H         1 RES1   0.0000
   290 C2      12.1888   2.3930  22.5505   C         1 RES1   0.0000
   291 C5      12.8497   3.1157  23.5909   C         1 RES1   0.0000
   292 H5      13.7750   3.1098  23.6587   H         1 RES1   0.0000
   293 C2      14.8440   3.9260  19.5461   C         1 RES1   0.0000
   294 C5      13.8083   3.5776  18.6035   C         1 RES1   0.0000
   295 H5      13.3578   2.7653  18.6508   H         1 RES1   0.0000
   296 C6      12.0957   3.8125  24.4784   C         1 RES1   0.0000
   297 H6      12.5244   4.2963  25.1467   H         1 RES1   0.0000
   298 C6      13.5210   4.5213  17.6152   C         1 RES1   0.0000
   299 H6      12.8531   4.3481  16.9925   H         1 RES1   0.0000
   300 N       15.0176   0.2249  19.5981   N         1 RES1   0.0000
   301 N       15.3521   3.1934  20.6369   N         1 RES1   0.0000
   302 N       15.3670   0.6510  22.8327   N         1 RES1   0.0000
   303 N       12.6842   1.6146  21.5338   N         1 RES1   0.0000
   304 Zn      14.6363   1.4029  21.1476   Z         1 RES1   0.0000
   305 C2       6.3680   0.0610  22.7029   C         1 RES1   0.0000
   306 C5       5.2220   0.3019  21.9810   C         1 RES1   0.0000
   307 H5       5.2495   0.7200  21.1518   H         1 RES1   0.0000
   308 H6       3.2472   0.0311  22.0677   H         1 RES1   0.0000
   309 C1       6.8289   3.8179  21.1187   C         1 RES1   0.0000
   310 H1       6.3783   3.4953  21.8643   H         1 RES1   0.0000
   311 C2       8.1668   3.9134  19.4841   C         1 RES1   0.0000
   312 C5       9.1232   3.7024  18.4438   C         1 RES1   0.0000
   313 H5       9.5807   2.8981  18.3760   H         1 RES1   0.0000
   314 C2      10.8221   2.3804  22.4885   C         1 RES1   0.0000
   315 C5      10.0025   3.1031  23.4312   C         1 RES1   0.0000
   316 H5       9.0738   3.0872  23.3839   H         1 RES1   0.0000
   317 C6       9.3496   4.7038  17.5563   C         1 RES1   0.0000
   318 H6       9.9830   4.5744  16.8880   H         1 RES1   0.0000
   319 C6      10.6761   3.8238  24.4195   C         1 RES1   0.0000
   320 H6      10.1922   4.3156  25.0422   H         1 RES1   0.0000
   321 N        7.7036   0.3796  22.4365   N         1 RES1   0.0000
   322 N       10.4416   1.5741  21.3977   N         1 RES1   0.0000
   323 N        8.2473   0.2900  19.2020   N         1 RES1   0.0000
   324 N        7.7404   3.0952  20.5008   N         1 RES1   0.0000
   325 Zn       8.5332   1.2988  20.8870   Z         1 RES1   0.0000
   326 C1      18.8797   7.2900  23.4926   C         1 RES1   0.0000
   327 H1      18.3636   8.0605  23.5604   H         1 RES1   0.0000
   328 C2      19.7521   5.4842  22.7029   C         1 RES1   0.0000
   329 C5      20.1165   4.3713  21.9810   C         1 RES1   0.0000
   330 H5      19.7407   4.1862  21.1518   H         1 RES1   0.0000
   331 C6      21.0637   3.5511  22.5358   C         1 RES1   0.0000
   332 H6      21.3384   2.7965  22.0677   H         1 RES1   0.0000
   333 C6      21.6338   3.8179  23.8079   C         1 RES1   0.0000
   334 H6      22.2763   3.2385  24.1515   H         1 RES1   0.0000
   335 C2      19.3441   8.0824  18.7117   C         1 RES1   0.0000
   336 C5      19.6016   9.3167  19.2824   C         1 RES1   0.0000
   337 H5      19.2740   9.5417  20.1241   H         1 RES1   0.0000
   338 C1      16.2682   4.0050  21.1187   C         1 RES1   0.0000
   339 H1      16.7728   3.7760  21.8643   H         1 RES1   0.0000
   340 C2      15.5164   5.1159  19.4841   C         1 RES1   0.0000
   341 C5      15.2210   6.0497  18.4438   C         1 RES1   0.0000
   342 H5      15.6888   6.8480  18.3760   H         1 RES1   0.0000
   343 C2      15.5164   8.1819  22.4885   C         1 RES1   0.0000
   344 C5      15.3003   7.1108  23.4312   C         1 RES1   0.0000
   345 H5      15.7785   6.3144  23.3839   H         1 RES1   0.0000
   346 C6      14.2405   5.7450  17.5563   C         1 RES1   0.0000
   347 H6      14.0359   6.3582  16.8880   H         1 RES1   0.0000
   348 C6      14.3394   7.3338  24.4195   C         1 RES1   0.0000
   349 H6      14.1555   6.6688  25.0422   H         1 RES1   0.0000
   350 N       18.8085   6.4817  22.4365   N         1 RES1   0.0000
   351 N       16.4050   8.2556  21.3977   N         1 RES1   0.0000
   352 N       18.6142   6.9973  19.2020   N         1 RES1   0.0000
   353 N       16.4383   5.1557  20.5008   N         1 RES1   0.0000
   354 Zn      17.5976   6.7405  20.8870   Z         1 RES1   0.0000
   355 C1      14.6210  13.3589  18.5420   C         1 RES1   0.0000
   356 H1      13.6957  13.2972  18.4742   H         1 RES1   0.0000
   357 C2      16.6210  13.2116  19.3317   C         1 RES1   0.0000
   358 C5      17.7670  12.9707  20.0537   C         1 RES1   0.0000
   359 H5      17.7395  12.5526  20.8828   H         1 RES1   0.0000
   360 C6      18.9510  13.3808  19.4988   C         1 RES1   0.0000
   361 H6      19.7418  13.2415  19.9670   H         1 RES1   0.0000
   362 C6      19.0050  14.0080  18.2268   C         1 RES1   0.0000
   363 H6      19.8280  14.2748  17.8831   H         1 RES1   0.0000
   364 C2      14.1670  14.1573  23.3229   C         1 RES1   0.0000
   365 C5      13.2267  14.9975  22.7523   C         1 RES1   0.0000
   366 H5      12.8681  14.8262  21.9106   H         1 RES1   0.0000
   367 C1      16.1601   9.4548  20.9159   C         1 RES1   0.0000
   368 H1      16.6107   9.7773  20.1703   H         1 RES1   0.0000
   369 C2      14.8222   9.3592  22.5505   C         1 RES1   0.0000
   370 C5      13.8658   9.5702  23.5909   C         1 RES1   0.0000
   371 H5      13.4083  10.3746  23.6587   H         1 RES1   0.0000
   372 C2      12.1669  10.8922  19.5461   C         1 RES1   0.0000
   373 C5      12.9865  10.1695  18.6035   C         1 RES1   0.0000
   374 H5      13.9152  10.1854  18.6508   H         1 RES1   0.0000
   375 C6      13.6394   8.5688  24.4784   C         1 RES1   0.0000
   376 H6      13.0060   8.6982  25.1467   H         1 RES1   0.0000
   377 C6      12.3129   9.4488  17.6152   C         1 RES1   0.0000
   378 H6      12.7968   8.9570  16.9925   H         1 RES1   0.0000
   379 N       15.2854  12.8931  19.5981   N         1 RES1   0.0000
   380 N       12.5474  11.6985  20.6369   N         1 RES1   0.0000
   381 N       14.7417  12.9827  22.8327   N         1 RES1   0.0000
   382 N       15.2486  10.1775  21.5338   N         1 RES1   0.0000
   383 Zn      14.4558  11.9739  21.1476   Z         1 RES1   0.0000
   384 C1       4.1093   5.9826  18.5420   C         1 RES1   0.0000
   385 H1       4.6254   5.2121  18.4742   H         1 RES1   0.0000
   386 C2       3.2369   7.7884  19.3317   C         1 RES1   0.0000
   387 C5       2.8725   8.9013  20.0537   C         1 RES1   0.0000
   388 H5       3.2483   9.0865  20.8828   H         1 RES1   0.0000
   389 C6       1.9253   9.7216  19.4988   C         1 RES1   0.0000
   390 H6       1.6506  10.4761  19.9670   H         1 RES1   0.0000
   391 C6       1.3552   9.4548  18.2268   C         1 RES1   0.0000
   392 H6       0.7127  10.0341  17.8831   H         1 RES1   0.0000
   393 C2       3.6449   5.1902  23.3229   C         1 RES1   0.0000
   394 C5       3.3874   3.9559  22.7523   C         1 RES1   0.0000
   395 H5       3.7150   3.7309  21.9106   H         1 RES1   0.0000
   396 C1       6.7208   9.2676  20.9159   C         1 RES1   0.0000
   397 H1       6.2162   9.4966  20.1703   H         1 RES1   0.0000
   398 C2       7.4726   8.1567  22.5505   C         1 RES1   0.0000
   399 C5       7.7680   7.2230  23.5909   C         1 RES1   0.0000
   400 H5       7.3002   6.4246  23.6587   H         1 RES1   0.0000
   401 C2       7.4726   5.0907  19.5461   C         1 RES1   0.0000
   402 C5       7.6887   6.1618  18.6035   C         1 RES1   0.0000
   403 H5       7.2105   6.9582  18.6508   H         1 RES1   0.0000
   404 C6       8.7485   7.5276  24.4784   C         1 RES1   0.0000
   405 H6       8.9531   6.9144  25.1467   H         1 RES1   0.0000
   406 C6       8.6496   5.9388  17.6152   C         1 RES1   0.0000
   407 H6       8.8335   6.6038  16.9925   H         1 RES1   0.0000
   408 N        4.1805   6.7909  19.5981   N         1 RES1   0.0000
   409 N        6.5840   5.0170  20.6369   N         1 RES1   0.0000
   410 N        4.3748   6.2753  22.8327   N         1 RES1   0.0000
   411 N        6.5507   8.1169  21.5338   N         1 RES1   0.0000
   412 Zn       5.3914   6.5321  21.1476   Z         1 RES1   0.0000
   413 C1       7.2358  12.7053  23.4926   C         1 RES1   0.0000
   414 H1       6.8266  11.8731  23.5604   H         1 RES1   0.0000
   415 C2       8.3634  14.3637  22.7029   C         1 RES1   0.0000
   416 C5       9.1450  15.2357  21.9810   C         1 RES1   0.0000
   417 H5       9.4933  15.0028  21.1518   H         1 RES1   0.0000
   418 C6       9.3818  16.4661  22.5358   C         1 RES1   0.0000
   419 H6       9.8979  17.0813  22.0677   H         1 RES1   0.0000
   420 C6       8.8657  16.8264  23.8079   C         1 RES1   0.0000
   421 H6       9.0462  17.6726  24.1515   H         1 RES1   0.0000
   422 C2       6.3174  12.7112  18.7117   C         1 RES1   0.0000
   423 C5       5.1197  12.3170  19.2824   C         1 RES1   0.0000
   424 H5       5.0886  11.9208  20.1241   H         1 RES1   0.0000
   425 C1      11.3865  12.0861  21.1187   C         1 RES1   0.0000
   426 H1      11.3324  12.6376  21.8643   H         1 RES1   0.0000
   427 C2      10.8002  10.8796  19.4841   C         1 RES1   0.0000
   428 C5      10.1393  10.1569  18.4438   C         1 RES1   0.0000
   429 H5       9.2140  10.1629  18.3760   H         1 RES1   0.0000
   430 C2       8.1450   9.3466  22.4885   C         1 RES1   0.0000
   431 C5       9.1807   9.6950  23.4312   C         1 RES1   0.0000
   432 H5       9.6312  10.5073  23.3839   H         1 RES1   0.0000
   433 C6      10.8933   9.4601  17.5563   C         1 RES1   0.0000
   434 H6      10.4646   8.9763  16.8880   H         1 RES1   0.0000
   435 C6       9.4680   8.7513  24.4195   C         1 RES1   0.0000
   436 H6      10.1359   8.9245  25.0422   H         1 RES1   0.0000
   437 N        7.9714  13.0477  22.4365   N         1 RES1   0.0000
   438 N        7.6369  10.0793  21.3977   N         1 RES1   0.0000
   439 N        7.6220  12.6216  19.2020   N         1 RES1   0.0000
   440 N       10.3048  11.6580  20.5008   N         1 RES1   0.0000
   441 Zn       8.3527  11.8697  20.8870   Z         1 RES1   0.0000
   442 C1       4.2587   7.2037  23.7964   C         1 RES1   0.0000
   443 C1      14.6210   0.0862  23.7964   C         1 RES1   0.0000
   444 C1      15.6038  12.6190  23.7964   C         1 RES1   0.0000
   445 C1      18.7303   6.0689  18.2383   C         1 RES1   0.0000
   446 C1       8.3680  13.1864  18.2383   C         1 RES1   0.0000
   447 C1       7.3852   0.6536  18.2383   C         1 RES1   0.0000
   448 C2       3.1311   5.5453  24.5861   C         1 RES1   0.0000
   449 C2      14.7314  14.4247  24.5861   C         1 RES1   0.0000
   450 C2      19.8579   7.7273  17.4486   C         1 RES1   0.0000
   451 C2       6.3680  13.3337  17.4486   C         1 RES1   0.0000
   452 C6       2.6288   3.0825  23.4811   C         1 RES1   0.0000
   453 C6      19.0050   0.7353  23.4811   C         1 RES1   0.0000
   454 C6      12.8497  16.0911  23.4811   C         1 RES1   0.0000
   455 C6      20.3602  10.1901  18.5536   C         1 RES1   0.0000
   456 C6       3.9840  12.5374  18.5536   C         1 RES1   0.0000
   457 C2      16.6716  13.8341  18.0686   C         1 RES1   0.0000
   458 C2       2.6725   7.5209  18.0686   C         1 RES1   0.0000
   459 C2      20.3165   5.7517  23.9661   C         1 RES1   0.0000
   460 C2       7.8496  14.7187  23.9661   C         1 RES1   0.0000
   461 C5      17.8693  14.2283  17.4980   C         1 RES1   0.0000
   462 C5       1.7322   8.3611  17.4980   C         1 RES1   0.0000
   463 C5      21.2568   4.9115  24.5367   C         1 RES1   0.0000
   464 C5       8.1071  15.9531  24.5367   C         1 RES1   0.0000
   465 N       15.3670  13.9237  17.5784   N         1 RES1   0.0000
   466 N        3.2472   6.3463  17.5784   N         1 RES1   0.0000
   467 N       19.7418   6.9263  24.4563   N         1 RES1   0.0000
   468 N        7.1197  13.6337  24.4563   N         1 RES1   0.0000
   469 C1       4.2587  20.4764   2.7790   C         1 RES1   0.0000
   470 H1       4.6679  21.3086   2.7112   H         1 RES1   0.0000
   471 C2       3.1311  18.8180   3.5687   C         1 RES1   0.0000
   472 C5       2.3495  17.9460   4.2907   C         1 RES1   0.0000
   473 H5       2.0012  18.1789   5.1198   H         1 RES1   0.0000
   474 C6       2.1127  16.7156   3.7358   C         1 RES1   0.0000
   475 H6       1.5966  16.1004   4.2040   H         1 RES1   0.0000
   476 C6       2.6288  16.3552   2.4638   C         1 RES1   0.0000
   477 H6       2.4483  15.5091   2.1201   H         1 RES1   0.0000
   478 C2       5.1771  20.4705   7.5599   C         1 RES1   0.0000
   479 C5       6.3748  20.8647   6.9893   C         1 RES1   0.0000
   480 H5       6.4059  21.2608   6.1476   H         1 RES1   0.0000
   481 C1       0.1080  21.0956   5.1529   C         1 RES1   0.0000
   482 H1       0.1621  20.5441   4.4073   H         1 RES1   0.0000
   483 C2       0.6943  22.3021   6.7875   C         1 RES1   0.0000
   484 C5       1.3552  23.0248   7.8279   C         1 RES1   0.0000
   485 H5       2.2805  23.0188   7.8957   H         1 RES1   0.0000
   486 C2       3.3495  23.8351   3.7831   C         1 RES1   0.0000
   487 C5       2.3138  23.4867   2.8405   C         1 RES1   0.0000
   488 H5       1.8633  22.6744   2.8878   H         1 RES1   0.0000
   489 C6       0.6012  23.7216   8.7154   C         1 RES1   0.0000
   490 H6       1.0299  24.2054   9.3837   H         1 RES1   0.0000
   491 C6       2.0265  24.4304   1.8522   C         1 RES1   0.0000
   492 H6       1.3586  24.2572   1.2295   H         1 RES1   0.0000
   493 N        3.5231  20.1340   3.8351   N         1 RES1   0.0000
   494 N        3.8576  23.1024   4.8739   N         1 RES1   0.0000
   495 N        3.8725  20.5600   7.0697   N         1 RES1   0.0000
   496 N        1.1897  21.5236   5.7708   N         1 RES1   0.0000
   497 Zn       3.1418  21.3120   5.3846   Z         1 RES1   0.0000
   498 C1      -3.1265  19.8227   7.7296   C         1 RES1   0.0000
   499 H1      -2.2012  19.8845   7.7974   H         1 RES1   0.0000
   500 C2      -5.1265  19.9701   6.9399   C         1 RES1   0.0000
   501 C5      -6.2725  20.2110   6.2180   C         1 RES1   0.0000
   502 H5      -6.2450  20.6291   5.3888   H         1 RES1   0.0000
   503 C6      -7.4565  19.8008   6.7728   C         1 RES1   0.0000
   504 H6      -8.2473  19.9402   6.3047   H         1 RES1   0.0000
   505 C6      -7.5105  19.1737   8.0449   C         1 RES1   0.0000
   506 H6      -8.3335  18.9069   8.3885   H         1 RES1   0.0000
   507 C2      -2.6725  19.0244   2.9487   C         1 RES1   0.0000
   508 C5      -1.7322  18.1842   3.5194   C         1 RES1   0.0000
   509 H5      -1.3736  18.3554   4.3611   H         1 RES1   0.0000
   510 C1      -4.6656  23.7269   5.3557   C         1 RES1   0.0000
   511 H1      -5.1162  23.4044   6.1013   H         1 RES1   0.0000
   512 C2      -3.3277  23.8225   3.7211   C         1 RES1   0.0000
   513 C5      -2.3713  23.6114   2.6808   C         1 RES1   0.0000
   514 H5      -1.9138  22.8071   2.6130   H         1 RES1   0.0000
   515 C2      -0.6724  22.2895   6.7255   C         1 RES1   0.0000
   516 C5      -1.4920  23.0122   7.6682   C         1 RES1   0.0000
   517 H5      -2.4207  22.9962   7.6209   H         1 RES1   0.0000
   518 C6      -2.1449  24.6129   1.7933   C         1 RES1   0.0000
   519 H6      -1.5115  24.4835   1.1250   H         1 RES1   0.0000
   520 C6      -0.8184  23.7329   8.6565   C         1 RES1   0.0000
   521 H6      -1.3023  24.2246   9.2792   H         1 RES1   0.0000
   522 N       -3.7909  20.2886   6.6735   N         1 RES1   0.0000
   523 N       -1.0529  21.4832   5.6347   N         1 RES1   0.0000
   524 N       -3.2472  20.1990   3.4390   N         1 RES1   0.0000
   525 N       -3.7541  23.0042   4.7378   N         1 RES1   0.0000
   526 Zn      -2.9613  21.2078   5.1240   Z         1 RES1   0.0000
   527 C1       7.3852  27.1990   7.7296   C         1 RES1   0.0000
   528 H1       6.8691  27.9695   7.7974   H         1 RES1   0.0000
   529 C2       8.2576  25.3933   6.9399   C         1 RES1   0.0000
   530 C5       8.6220  24.2804   6.2180   C         1 RES1   0.0000
   531 H5       8.2462  24.0952   5.3888   H         1 RES1   0.0000
   532 C6       9.5692  23.4601   6.7728   C         1 RES1   0.0000
   533 H6       9.8439  22.7056   6.3047   H         1 RES1   0.0000
   534 C6      10.1393  23.7269   8.0449   C         1 RES1   0.0000
   535 H6      10.7818  23.1476   8.3885   H         1 RES1   0.0000
   536 C2       7.8496  27.9914   2.9487   C         1 RES1   0.0000
   537 C5       8.1071  29.2258   3.5194   C         1 RES1   0.0000
   538 H5       7.7795  29.4508   4.3611   H         1 RES1   0.0000
   539 C1       4.7737  23.9141   5.3557   C         1 RES1   0.0000
   540 H1       5.2783  23.6851   6.1013   H         1 RES1   0.0000
   541 C2       4.0219  25.0250   3.7211   C         1 RES1   0.0000
   542 C5       3.7265  25.9587   2.6808   C         1 RES1   0.0000
   543 H5       4.1943  26.7571   2.6130   H         1 RES1   0.0000
   544 C2       4.0219  28.0910   6.7255   C         1 RES1   0.0000
   545 C5       3.8058  27.0199   7.6682   C         1 RES1   0.0000
   546 H5       4.2840  26.2235   7.6209   H         1 RES1   0.0000
   547 C6       2.7460  25.6541   1.7933   C         1 RES1   0.0000
   548 H6       2.5414  26.2673   1.1250   H         1 RES1   0.0000
   549 C6       2.8449  27.2428   8.6565   C         1 RES1   0.0000
   550 H6       2.6610  26.5779   9.2792   H         1 RES1   0.0000
   551 N        7.3140  26.3907   6.6735   N         1 RES1   0.0000
   552 N        4.9105  28.1646   5.6347   N         1 RES1   0.0000
   553 N        7.1197  26.9064   3.4390   N         1 RES1   0.0000
   554 N        4.9438  25.0648   4.7378   N         1 RES1   0.0000
   555 Zn       6.1031  26.6496   5.1240   Z         1 RES1   0.0000
   556 C1       3.1265  33.2680   2.7790   C         1 RES1   0.0000
   557 H1       2.2012  33.2063   2.7112   H         1 RES1   0.0000
   558 C2       5.1265  33.1207   3.5687   C         1 RES1   0.0000
   559 C5       6.2725  32.8798   4.2907   C         1 RES1   0.0000
   560 H5       6.2450  32.4617   5.1198   H         1 RES1   0.0000
   561 C6       7.4565  33.2899   3.7358   C         1 RES1   0.0000
   562 H6       8.2473  33.1505   4.2040   H         1 RES1   0.0000
   563 C6       7.5105  33.9170   2.4638   C         1 RES1   0.0000
   564 H6       8.3335  34.1838   2.1201   H         1 RES1   0.0000
   565 C2       2.6725  34.0663   7.5599   C         1 RES1   0.0000
   566 C5       1.7322  34.9065   6.9893   C         1 RES1   0.0000
   567 H5       1.3736  34.7353   6.1476   H         1 RES1   0.0000
   568 C1       4.6656  29.3638   5.1529   C         1 RES1   0.0000
   569 H1       5.1162  29.6864   4.4073   H         1 RES1   0.0000
   570 C2       3.3277  29.2683   6.7875   C         1 RES1   0.0000
   571 C5       2.3713  29.4793   7.8279   C         1 RES1   0.0000
   572 H5       1.9138  30.2836   7.8957   H         1 RES1   0.0000
   573 C2       0.6724  30.8013   3.7831   C         1 RES1   0.0000
   574 C5       1.4920  30.0786   2.8405   C         1 RES1   0.0000
   575 H5       2.4207  30.0945   2.8878   H         1 RES1   0.0000
   576 C6       2.1449  28.4779   8.7154   C         1 RES1   0.0000
   577 H6       1.5115  28.6073   9.3837   H         1 RES1   0.0000
   578 C6       0.8184  29.3579   1.8522   C         1 RES1   0.0000
   579 H6       1.3023  28.8661   1.2295   H         1 RES1   0.0000
   580 N        3.7909  32.8021   3.8351   N         1 RES1   0.0000
   581 N        1.0529  31.6076   4.8739   N         1 RES1   0.0000
   582 N        3.2472  32.8917   7.0697   N         1 RES1   0.0000
   583 N        3.7541  30.0865   5.7708   N         1 RES1   0.0000
   584 Zn       2.9613  31.8829   5.3846   Z         1 RES1   0.0000
   585 C1      -7.3852  25.8917   2.7790   C         1 RES1   0.0000
   586 H1      -6.8691  25.1212   2.7112   H         1 RES1   0.0000
   587 C2      -8.2576  27.6974   3.5687   C         1 RES1   0.0000
   588 C5      -8.6220  28.8104   4.2907   C         1 RES1   0.0000
   589 H5      -8.2462  28.9955   5.1198   H         1 RES1   0.0000
   590 C6      -9.5692  29.6306   3.7358   C         1 RES1   0.0000
   591 H6      -9.8439  30.3852   4.2040   H         1 RES1   0.0000
   592 C6     -10.1393  29.3638   2.4638   C         1 RES1   0.0000
   593 H6     -10.7818  29.9432   2.1201   H         1 RES1   0.0000
   594 C2      -7.8496  25.0993   7.5599   C         1 RES1   0.0000
   595 C5      -8.1071  23.8649   6.9893   C         1 RES1   0.0000
   596 H5      -7.7795  23.6400   6.1476   H         1 RES1   0.0000
   597 C1      -4.7737  29.1767   5.1529   C         1 RES1   0.0000
   598 H1      -5.2783  29.4056   4.4073   H         1 RES1   0.0000
   599 C2      -4.0219  28.0658   6.7875   C         1 RES1   0.0000
   600 C5      -3.7265  27.1320   7.8279   C         1 RES1   0.0000
   601 H5      -4.1943  26.3337   7.8957   H         1 RES1   0.0000
   602 C2      -4.0219  24.9998   3.7831   C         1 RES1   0.0000
   603 C5      -3.8058  26.0709   2.8405   C         1 RES1   0.0000
   604 H5      -4.2840  26.8672   2.8878   H         1 RES1   0.0000
   605 C6      -2.7460  27.4366   8.7154   C         1 RES1   0.0000
   606 H6      -2.5414  26.8234   9.3837   H         1 RES1   0.0000
   607 C6      -2.8449  25.8479   1.8522   C         1 RES1   0.0000
   608 H6      -2.6610  26.5129   1.2295   H         1 RES1   0.0000
   609 N       -7.3140  26.7000   3.8351   N         1 RES1   0.0000
   610 N       -4.9105  24.9261   4.8739   N         1 RES1   0.0000
   611 N       -7.1197  26.1844   7.0697   N         1 RES1   0.0000
   612 N       -4.9438  28.0259   5.7708   N         1 RES1   0.0000
   613 Zn      -6.1031  26.4412   5.3846   Z         1 RES1   0.0000
   614 C1      -4.2587  32.6143   7.7296   C         1 RES1   0.0000
   615 H1      -4.6679  31.7821   7.7974   H         1 RES1   0.0000
   616 C2      -3.1311  34.2727   6.9399   C         1 RES1   0.0000
   617 C5      -2.3495  35.1448   6.2180   C         1 RES1   0.0000
   618 H5      -2.0012  34.9118   5.3888   H         1 RES1   0.0000
   619 C6      -2.1127  36.3751   6.7728   C         1 RES1   0.0000
   620 H6      -1.5966  36.9903   6.3047   H         1 RES1   0.0000
   621 C6      -2.6288  36.7355   8.0449   C         1 RES1   0.0000
   622 H6      -2.4483  37.5816   8.3885   H         1 RES1   0.0000
   623 C2      -5.1771  32.6203   2.9487   C         1 RES1   0.0000
   624 C5      -6.3748  32.2261   3.5194   C         1 RES1   0.0000
   625 H5      -6.4059  31.8299   4.3611   H         1 RES1   0.0000
   626 C1      -0.1080  31.9951   5.3557   C         1 RES1   0.0000
   627 H1      -0.1621  32.5466   6.1013   H         1 RES1   0.0000
   628 C2      -0.6943  30.7887   3.7211   C         1 RES1   0.0000
   629 C5      -1.3552  30.0660   2.6808   C         1 RES1   0.0000
   630 H5      -2.2805  30.0719   2.6130   H         1 RES1   0.0000
   631 C2      -3.3495  29.2557   6.7255   C         1 RES1   0.0000
   632 C5      -2.3138  29.6041   7.6682   C         1 RES1   0.0000
   633 H5      -1.8633  30.4164   7.6209   H         1 RES1   0.0000
   634 C6      -0.6012  29.3691   1.7933   C         1 RES1   0.0000
   635 H6      -1.0299  28.8853   1.1250   H         1 RES1   0.0000
   636 C6      -2.0265  28.6604   8.6565   C         1 RES1   0.0000
   637 H6      -1.3586  28.8336   9.2792   H         1 RES1   0.0000
   638 N       -3.5231  32.9567   6.6735   N         1 RES1   0.0000
   639 N       -3.8576  29.9883   5.6347   N         1 RES1   0.0000
   640 N       -3.8725  32.5307   3.4390   N         1 RES1   0.0000
   641 N       -1.1897  31.5671   4.7378   N         1 RES1   0.0000
   642 Zn      -3.1418  31.7787   5.1240   Z         1 RES1   0.0000
   643 C1      -7.2358  27.1128   8.0334   C         1 RES1   0.0000
   644 C1       3.1265  19.9953   8.0334   C         1 RES1   0.0000
   645 C1       4.1093  32.5280   8.0334   C         1 RES1   0.0000
   646 C1       7.2358  25.9780   2.4753   C         1 RES1   0.0000
   647 C1      -3.1265  33.0954   2.4753   C         1 RES1   0.0000
   648 C1      -4.1093  20.5627   2.4753   C         1 RES1   0.0000
   649 C2      -8.3634  25.4544   8.8231   C         1 RES1   0.0000
   650 C2       5.1265  19.8480   8.8231   C         1 RES1   0.0000
   651 C2       3.2369  34.3338   8.8231   C         1 RES1   0.0000
   652 C2       8.3634  27.6364   1.6856   C         1 RES1   0.0000
   653 C2      -5.1265  33.2428   1.6856   C         1 RES1   0.0000
   654 C2      -3.2369  18.7569   1.6856   C         1 RES1   0.0000
   655 C6      -8.8657  22.9916   7.7181   C         1 RES1   0.0000
   656 C6       7.5105  20.6443   7.7181   C         1 RES1   0.0000
   657 C6       1.3552  36.0002   7.7181   C         1 RES1   0.0000
   658 C6       8.8657  30.0991   2.7906   C         1 RES1   0.0000
   659 C6      -7.5105  32.4464   2.7906   C         1 RES1   0.0000
   660 C6      -1.3552  17.0906   2.7906   C         1 RES1   0.0000
   661 C2       5.1771  33.7432   2.3056   C         1 RES1   0.0000
   662 C2      -8.8220  27.4300   2.3056   C         1 RES1   0.0000
   663 C2       3.6449  18.4630   2.3056   C         1 RES1   0.0000
   664 C2      -5.1771  19.3476   8.2031   C         1 RES1   0.0000
   665 C2       8.8220  25.6607   8.2031   C         1 RES1   0.0000
   666 C2      -3.6449  34.6278   8.2031   C         1 RES1   0.0000
   667 C5       6.3748  34.1374   1.7350   C         1 RES1   0.0000
   668 C5      -9.7623  28.2702   1.7350   C         1 RES1   0.0000
   669 C5       3.3874  17.2286   1.7350   C         1 RES1   0.0000
   670 C5      -6.3748  18.9534   8.7737   C         1 RES1   0.0000
   671 C5       9.7623  24.8206   8.7737   C         1 RES1   0.0000
   672 C5      -3.3874  35.8621   8.7737   C         1 RES1   0.0000
   673 N        3.8725  33.8327   1.8154   N         1 RES1   0.0000
   674 N       -8.2473  26.2554   1.8154   N         1 RES1   0.0000
   675 N        4.3748  19.5480   1.8154   N         1 RES1   0.0000
   676 N       -3.8725  19.2580   8.6933   N         1 RES1   0.0000
   677 N        8.2473  26.8354   8.6933   N         1 RES1   0.0000
   678 N       -4.3748  33.5427   8.6933   N         1 RES1   0.0000
   679 C1       4.2587  20.4764  18.5420   C         1 RES1   0.0000
   680 H1       4.6679  21.3086  18.4742   H         1 RES1   0.0000
   681 C2       3.1311  18.8180  19.3317   C         1 RES1   0.0000
   682 C5       2.3495  17.9460  20.0537   C         1 RES1   0.0000
   683 H5       2.0012  18.1789  20.8828   H         1 RES1   0.0000
   684 C6       2.1127  16.7156  19.4988   C         1 RES1   0.0000
   685 H6       1.5966  16.1004  19.9670   H         1 RES1   0.0000
   686 C6       2.6288  16.3552  18.2268   C         1 RES1   0.0000
   687 H6       2.4483  15.5091  17.8831   H         1 RES1   0.0000
   688 C2       5.1771  20.4705  23.3229   C         1 RES1   0.0000
   689 C5       6.3748  20.8647  22.7523   C         1 RES1   0.0000
   690 H5       6.4059  21.2608  21.9106   H         1 RES1   0.0000
   691 C1       0.1080  21.0956  20.9159   C         1 RES1   0.0000
   692 H1       0.1621  20.5441  20.1703   H         1 RES1   0.0000
   693 C2       0.6943  22.3021  22.5505   C         1 RES1   0.0000
   694 C5       1.3552  23.0248  23.5909   C         1 RES1   0.0000
   695 H5       2.2805  23.0188  23.6587   H         1 RES1   0.0000
   696 C2       3.3495  23.8351  19.5461   C         1 RES1   0.0000
   697 C5       2.3138  23.4867  18.6035   C         1 RES1   0.0000
   698 H5       1.8633  22.6744  18.6508   H         1 RES1   0.0000
   699 C6       0.6012  23.7216  24.4784   C         1 RES1   0.0000
   700 H6       1.0299  24.2054  25.1467   H         1 RES1   0.0000
   701 C6       2.0265  24.4304  17.6152   C         1 RES1   0.0000
   702 H6       1.3586  24.2572  16.9925   H         1 RES1   0.0000
   703 N        3.5231  20.1340  19.5981   N         1 RES1   0.0000
   704 N        3.8576  23.1024  20.6369   N         1 RES1   0.0000
   705 N        3.8725  20.5600  22.8327   N         1 RES1   0.0000
   706 N        1.1897  21.5236  21.5338   N         1 RES1   0.0000
   707 Zn       3.1418  21.3120  21.1476   Z         1 RES1   0.0000
   708 C1      -3.1265  19.8227  23.4926   C         1 RES1   0.0000
   709 H1      -2.2012  19.8845  23.5604   H         1 RES1   0.0000
   710 C2      -5.1265  19.9701  22.7029   C         1 RES1   0.0000
   711 C5      -6.2725  20.2110  21.9810   C         1 RES1   0.0000
   712 H5      -6.2450  20.6291  21.1518   H         1 RES1   0.0000
   713 C6      -7.4565  19.8008  22.5358   C         1 RES1   0.0000
   714 H6      -8.2473  19.9402  22.0677   H         1 RES1   0.0000
   715 C6      -7.5105  19.1737  23.8079   C         1 RES1   0.0000
   716 H6      -8.3335  18.9069  24.1515   H         1 RES1   0.0000
   717 C2      -2.6725  19.0244  18.7117   C         1 RES1   0.0000
   718 C5      -1.7322  18.1842  19.2824   C         1 RES1   0.0000
   719 H5      -1.3736  18.3554  20.1241   H         1 RES1   0.0000
   720 C1      -4.6656  23.7269  21.1187   C         1 RES1   0.0000
   721 H1      -5.1162  23.4044  21.8643   H         1 RES1   0.0000
   722 C2      -3.3277  23.8225  19.4841   C         1 RES1   0.0000
   723 C5      -2.3713  23.6114  18.4438   C         1 RES1   0.0000
   724 H5      -1.9138  22.8071  18.3760   H         1 RES1   0.0000
   725 C2      -0.6724  22.2895  22.4885   C         1 RES1   0.0000
   726 C5      -1.4920  23.0122  23.4312   C         1 RES1   0.0000
   727 H5      -2.4207  22.9962  23.3839   H         1 RES1   0.0000
   728 C6      -2.1449  24.6129  17.5563   C         1 RES1   0.0000
   729 H6      -1.5115  24.4835  16.8880   H         1 RES1   0.0000
   730 C6      -0.8184  23.7329  24.4195   C         1 RES1   0.0000
   731 H6      -1.3023  24.2246  25.0422   H         1 RES1   0.0000
   732 N       -3.7909  20.2886  22.4365   N         1 RES1   0.0000
   733 N       -1.0529  21.4832  21.3977   N         1 RES1   0.0000
   734 N       -3.2472  20.1990  19.2020   N         1 RES1   0.0000
   735 N       -3.7541  23.0042  20.5008   N         1 RES1   0.0000
   736 Zn      -2.9613  21.2078  20.8870   Z         1 RES1   0.0000
   737 C1       7.3852  27.1990  23.4926   C         1 RES1   0.0000
   738 H1       6.8691  27.9695  23.5604   H         1 RES1   0.0000
   739 C2       8.2576  25.3933  22.7029   C         1 RES1   0.0000
   740 C5       8.6220  24.2804  21.9810   C         1 RES1   0.0000
   741 H5       8.2462  24.0952  21.1518   H         1 RES1   0.0000
   742 C6       9.5692  23.4601  22.5358   C         1 RES1   0.0000
   743 H6       9.8439  22.7056  22.0677   H         1 RES1   0.0000
   744 C6      10.1393  23.7269  23.8079   C         1 RES1   0.0000
   745 H6      10.7818  23.1476  24.1515   H         1 RES1   0.0000
   746 C2       7.8496  27.9914  18.7117   C         1 RES1   0.0000
   747 C5       8.1071  29.2258  19.2824   C         1 RES1   0.0000
   748 H5       7.7795  29.4508  20.1241   H         1 RES1   0.0000
   749 C1       4.7737  23.9141  21.1187   C         1 RES1   0.0000
   750 H1       5.2783  23.6851  21.8643   H         1 RES1   0.0000
   751 C2       4.0219  25.0250  19.4841   C         1 RES1   0.0000
   752 C5       3.7265  25.9587  18.4438   C         1 RES1   0.0000
   753 H5       4.1943  26.7571  18.3760   H         1 RES1   0.0000
   754 C2       4.0219  28.0910  22.4885   C         1 RES1   0.0000
   755 C5       3.8058  27.0199  23.4312   C         1 RES1   0.0000
   756 H5       4.2840  26.2235  23.3839   H         1 RES1   0.0000
   757 C6       2.7460  25.6541  17.5563   C         1 RES1   0.0000
   758 H6       2.5414  26.2673  16.8880   H         1 RES1   0.0000
   759 C6       2.8449  27.2428  24.4195   C         1 RES1   0.0000
   760 H6       2.6610  26.5779  25.0422   H         1 RES1   0.0000
   761 N        7.3140  26.3907  22.4365   N         1 RES1   0.0000
   762 N        4.9105  28.1646  21.3977   N         1 RES1   0.0000
   763 N        7.1197  26.9064  19.2020   N         1 RES1   0.0000
   764 N        4.9438  25.0648  20.5008   N         1 RES1   0.0000
   765 Zn       6.1031  26.6496  20.8870   Z         1 RES1   0.0000
   766 C1       3.1265  33.2680  18.5420   C         1 RES1   0.0000
   767 H1       2.2012  33.2063  18.4742   H         1 RES1   0.0000
   768 C2       5.1265  33.1207  19.3317   C         1 RES1   0.0000
   769 C5       6.2725  32.8798  20.0537   C         1 RES1   0.0000
   770 H5       6.2450  32.4617  20.8828   H         1 RES1   0.0000
   771 C6       7.4565  33.2899  19.4988   C         1 RES1   0.0000
   772 H6       8.2473  33.1505  19.9670   H         1 RES1   0.0000
   773 C6       7.5105  33.9170  18.2268   C         1 RES1   0.0000
   774 H6       8.3335  34.1838  17.8831   H         1 RES1   0.0000
   775 C2       2.6725  34.0663  23.3229   C         1 RES1   0.0000
   776 C5       1.7322  34.9065  22.7523   C         1 RES1   0.0000
   777 H5       1.3736  34.7353  21.9106   H         1 RES1   0.0000
   778 C1       4.6656  29.3638  20.9159   C         1 RES1   0.0000
   779 H1       5.1162  29.6864  20.1703   H         1 RES1   0.0000
   780 C2       3.3277  29.2683  22.5505   C         1 RES1   0.0000
   781 C5       2.3713  29.4793  23.5909   C         1 RES1   0.0000
   782 H5       1.9138  30.2836  23.6587   H         1 RES1   0.0000
   783 C2       0.6724  30.8013  19.5461   C         1 RES1   0.0000
   784 C5       1.4920  30.0786  18.6035   C         1 RES1   0.0000
   785 H5       2.4207  30.0945  18.6508   H         1 RES1   0.0000
   786 C6       2.1449  28.4779  24.4784   C         1 RES1   0.0000
   787 H6       1.5115  28.6073  25.1467   H         1 RES1   0.0000
   788 C6       0.8184  29.3579  17.6152   C         1 RES1   0.0000
   789 H6       1.3023  28.8661  16.9925   H         1 RES1   0.0000
   790 N        3.7909  32.8021  19.5981   N         1 RES1   0.0000
   791 N        1.0529  31.6076  20.6369   N         1 RES1   0.0000
   792 N        3.2472  32.8917  22.8327   N         1 RES1   0.0000
   793 N        3.7541  30.0865  21.5338   N         1 RES1   0.0000
   794 Zn       2.9613  31.8829  21.1476   Z         1 RES1   0.0000
   795 C1      -7.3852  25.8917  18.5420   C         1 RES1   0.0000
   796 H1      -6.8691  25.1212  18.4742   H         1 RES1   0.0000
   797 C2      -8.2576  27.6974  19.3317   C         1 RES1   0.0000
   798 C5      -8.6220  28.8104  20.0537   C         1 RES1   0.0000
   799 H5      -8.2462  28.9955  20.8828   H         1 RES1   0.0000
   800 C6      -9.5692  29.6306  19.4988   C         1 RES1   0.0000
   801 H6      -9.8439  30.3852  19.9670   H         1 RES1   0.0000
   802 C6     -10.1393  29.3638  18.2268   C         1 RES1   0.0000
   803 H6     -10.7818  29.9432  17.8831   H         1 RES1   0.0000
   804 C2      -7.8496  25.0993  23.3229   C         1 RES1   0.0000
   805 C5      -8.1071  23.8649  22.7523   C         1 RES1   0.0000
   806 H5      -7.7795  23.6400  21.9106   H         1 RES1   0.0000
   807 C1      -4.7737  29.1767  20.9159   C         1 RES1   0.0000
   808 H1      -5.2783  29.4056  20.1703   H         1 RES1   0.0000
   809 C2      -4.0219  28.0658  22.5505   C         1 RES1   0.0000
   810 C5      -3.7265  27.1320  23.5909   C         1 RES1   0.0000
   811 H5      -4.1943  26.3337  23.6587   H         1 RES1   0.0000
   812 C2      -4.0219  24.9998  19.5461   C         1 RES1   0.0000
   813 C5      -3.8058  26.0709  18.6035   C         1 RES1   0.0000
   814 H5      -4.2840  26.8672  18.6508   H         1 RES1   0.0000
   815 C6      -2.7460  27.4366  24.4784   C         1 RES1   0.0000
   816 H6      -2.5414  26.8234  25.1467   H         1 RES1   0.0000
   817 C6      -2.8449  25.8479  17.6152   C         1 RES1   0.0000
   818 H6      -2.6610  26.5129  16.9925   H         1 RES1   0.0000
   819 N       -7.3140  26.7000  19.5981   N         1 RES1   0.0000
   820 N       -4.9105  24.9261  20.6369   N         1 RES1   0.0000
   821 N       -7.1197  26.1844  22.8327   N         1 RES1   0.0000
   822 N       -4.9438  28.0259  21.5338   N         1 RES1   0.0000
   823 Zn      -6.1031  26.4412  21.1476   Z         1 RES1   0.0000
   824 C1      -4.2587  32.6143  23.4926   C         1 RES1   0.0000
   825 H1      -4.6679  31.7821  23.5604   H         1 RES1   0.0000
   826 C2      -3.1311  34.2727  22.7029   C         1 RES1   0.0000
   827 C5      -2.3495  35.1448  21.9810   C         1 RES1   0.0000
   828 H5      -2.0012  34.9118  21.1518   H         1 RES1   0.0000
   829 C6      -2.1127  36.3751  22.5358   C         1 RES1   0.0000
   830 H6      -1.5966  36.9903  22.0677   H         1 RES1   0.0000
   831 C6      -2.6288  36.7355  23.8079   C         1 RES1   0.0000
   832 H6      -2.4483  37.5816  24.1515   H         1 RES1   0.0000
   833 C2      -5.1771  32.6203  18.7117   C         1 RES1   0.0000
   834 C5      -6.3748  32.2261  19.2824   C         1 RES1   0.0000
   835 H5      -6.4059  31.8299  20.1241   H         1 RES1   0.0000
   836 C1      -0.1080  31.9951  21.1187   C         1 RES1   0.0000
   837 H1      -0.1621  32.5466  21.8643   H         1 RES1   0.0000
   838 C2      -0.6943  30.7887  19.4841   C         1 RES1   0.0000
   839 C5      -1.3552  30.0660  18.4438   C         1 RES1   0.0000
   840 H5      -2.2805  30.0719  18.3760   H         1 RES1   0.0000
   841 C2      -3.3495  29.2557  22.4885   C         1 RES1   0.0000
   842 C5      -2.3138  29.6041  23.4312   C         1 RES1   0.0000
   843 H5      -1.8633  30.4164  23.3839   H         1 RES1   0.0000
   844 C6      -0.6012  29.3691  17.5563   C         1 RES1   0.0000
   845 H6      -1.0299  28.8853  16.8880   H         1 RES1   0.0000
   846 C6      -2.0265  28.6604  24.4195   C         1 RES1   0.0000
   847 H6      -1.3586  28.8336  25.0422   H         1 RES1   0.0000
   848 N       -3.5231  32.9567  22.4365   N         1 RES1   0.0000
   849 N       -3.8576  29.9883  21.3977   N         1 RES1   0.0000
   850 N       -3.8725  32.5307  19.2020   N         1 RES1   0.0000
   851 N       -1.1897  31.5671  20.5008   N         1 RES1   0.0000
   852 Zn      -3.1418  31.7787  20.8870   Z         1 RES1   0.0000
   853 C1      -7.2358  27.1128  23.7964   C         1 RES1   0.0000
   854 C1       3.1265  19.9953  23.7964   C         1 RES1   0.0000
   855 C1       4.1093  32.5280  23.7964   C         1 RES1   0.0000
   856 C1       7.2358  25.9780  18.2383   C         1 RES1   0.0000
   857 C1      -3.1265  33.0954  18.2383   C         1 RES1   0.0000
   858 C1      -4.1093  20.5627  18.2383   C         1 RES1   0.0000
   859 C2      -8.3634  25.4544  24.5861   C         1 RES1   0.0000
   860 C2       5.1265  19.8480  24.5861   C         1 RES1   0.0000
   861 C2       3.2369  34.3338  24.5861   C         1 RES1   0.0000
   862 C2       8.3634  27.6364  17.4486   C         1 RES1   0.0000
   863 C2      -5.1265  33.2428  17.4486   C         1 RES1   0.0000
   864 C2      -3.2369  18.7569  17.4486   C         1 RES1   0.0000
   865 C6      -8.8657  22.9916  23.4811   C         1 RES1   0.0000
   866 C6       7.5105  20.6443  23.4811   C         1 RES1   0.0000
   867 C6       1.3552  36.0002  23.4811   C         1 RES1   0.0000
   868 C6       8.8657  30.0991  18.5536   C         1 RES1   0.0000
   869 C6      -7.5105  32.4464  18.5536   C         1 RES1   0.0000
   870 C6      -1.3552  17.0906  18.5536   C         1 RES1   0.0000
   871 C2       5.1771  33.7432  18.0686   C         1 RES1   0.0000
   872 C2      -8.8220  27.4300  18.0686   C         1 RES1   0.0000
   873 C2       3.6449  18.4630  18.0686   C         1 RES1   0.0000
   874 C2      -5.1771  19.3476  23.9661   C         1 RES1   0.0000
   875 C2       8.8220  25.6607  23.9661   C         1 RES1   0.0000
   876 C2      -3.6449  34.6278  23.9661   C         1 RES1   0.0000
   877 C5       6.3748  34.1374  17.4980   C         1 RES1   0.0000
   878 C5      -9.7623  28.2702  17.4980   C         1 RES1   0.0000
   879 C5       3.3874  17.2286  17.4980   C         1 RES1   0.0000
   880 C5      -6.3748  18.9534  24.5367   C         1 RES1   0.0000
   881 C5       9.7623  24.8206  24.5367   C         1 RES1   0.0000
   882 C5      -3.3874  35.8621  24.5367   C         1 RES1   0.0000
   883 N        3.8725  33.8327  17.5784   N         1 RES1   0.0000
   884 N       -8.2473  26.2554  17.5784   N         1 RES1   0.0000
   885 N        4.3748  19.5480  17.5784   N         1 RES1   0.0000
   886 N       -3.8725  19.2580  24.4563   N         1 RES1   0.0000
   887 N        8.2473  26.8354  24.4563   N         1 RES1   0.0000
   888 N       -4.3748  33.5427  24.4563   N         1 RES1   0.0000
   889 C2      -8.3634  38.7271   3.5687   C         1 RES1   0.0000
   890 C5      -9.1450  37.8550   4.2907   C         1 RES1   0.0000
   891 H5      -9.4933  38.0880   5.1198   H         1 RES1   0.0000
   892 C6      -9.3818  36.6247   3.7358   C         1 RES1   0.0000
   893 H6      -9.8979  36.0095   4.2040   H         1 RES1   0.0000
   894 C6      -8.8657  36.2643   2.4638   C         1 RES1   0.0000
   895 H6      -9.0462  35.4182   2.1201   H         1 RES1   0.0000
   896 C1     -14.6210  39.7318   7.7296   C         1 RES1   0.0000
   897 H1     -13.6957  39.7935   7.7974   H         1 RES1   0.0000
   898 C6     -18.9510  39.7099   6.7728   C         1 RES1   0.0000
   899 C6     -19.0050  39.0828   8.0449   C         1 RES1   0.0000
   900 H6     -19.8280  38.8160   8.3885   H         1 RES1   0.0000
   901 C2     -14.1670  38.9334   2.9487   C         1 RES1   0.0000
   902 C5     -13.2267  38.0933   3.5194   C         1 RES1   0.0000
   903 H5     -12.8681  38.2645   4.3611   H         1 RES1   0.0000
   904 C2      -6.3680  39.7570   8.8231   C         1 RES1   0.0000
   905 C2     -14.7314  38.6660   1.6856   C         1 RES1   0.0000
   906 C6     -12.8497  36.9996   2.7906   C         1 RES1   0.0000
   907 C2      -7.8496  38.3720   2.3056   C         1 RES1   0.0000
   908 C2     -16.6716  39.2566   8.2031   C         1 RES1   0.0000
   909 C5      -8.1071  37.1377   1.7350   C         1 RES1   0.0000
   910 C5     -17.8693  38.8624   8.7737   C         1 RES1   0.0000
   911 N       -7.1197  39.4571   1.8154   N         1 RES1   0.0000
   912 N      -15.3670  39.1670   8.6933   N         1 RES1   0.0000
   913 C2      -8.3634  38.7271  19.3317   C         1 RES1   0.0000
   914 C5      -9.1450  37.8550  20.0537   C         1 RES1   0.0000
   915 H5      -9.4933  38.0880  20.8828   H         1 RES1   0.0000
   916 C6      -9.3818  36.6247  19.4988   C         1 RES1   0.0000
   917 H6      -9.8979  36.0095  19.9670   H         1 RES1   0.0000
   918 C6      -8.8657  36.2643  18.2268   C         1 RES1   0.0000
   919 H6      -9.0462  35.4182  17.8831   H         1 RES1   0.0000
   920 C1     -14.6210  39.7318  23.4926   C         1 RES1   0.0000
   921 H1     -13.6957  39.7935  23.5604   H         1 RES1   0.0000
   922 C6     -18.9510  39.7099  22.5358   C         1 RES1   0.0000
   923 C6     -19.0050  39.0828  23.8079   C         1 RES1   0.0000
   924 H6     -19.8280  38.8160  24.1515   H         1 RES1   0.0000
   925 C2     -14.1670  38.9334  18.7117   C         1 RES1   0.0000
   926 C5     -13.2267  38.0933  19.2824   C         1 RES1   0.0000
   927 H5     -12.8681  38.2645  20.1241   H         1 RES1   0.0000
   928 C2      -6.3680  39.7570  24.5861   C         1 RES1   0.0000
   929 C2     -14.7314  38.6660  17.4486   C         1 RES1   0.0000
   930 C6     -12.8497  36.9996  18.5536   C         1 RES1   0.0000
   931 C2      -7.8496  38.3720  18.0686   C         1 RES1   0.0000
   932 C2     -16.6716  39.2566  23.9661   C         1 RES1   0.0000
   933 C5      -8.1071  37.1377  17.4980   C         1 RES1   0.0000
   934 C5     -17.8693  38.8624  24.5367   C         1 RES1   0.0000
   935 N       -7.1197  39.4571  17.5784   N         1 RES1   0.0000
   936 N      -15.3670  39.1670  24.4563   N         1 RES1   0.0000
   937 C1      38.7422   0.5674   2.7790   C         1 RES1   0.0000
   938 H1      39.1514   1.3996   2.7112   H         1 RES1   0.0000
   939 C2      39.6606   0.5614   7.5599   C         1 RES1   0.0000
   940 C5      40.8583   0.9556   6.9893   C         1 RES1   0.0000
   941 H5      40.8894   1.3518   6.1476   H         1 RES1   0.0000
   942 C1      34.5915   1.1865   5.1529   C         1 RES1   0.0000
   943 H1      34.6456   0.6351   4.4073   H         1 RES1   0.0000
   944 C2      35.1778   2.3930   6.7875   C         1 RES1   0.0000
   945 C5      35.8387   3.1157   7.8279   C         1 RES1   0.0000
   946 H5      36.7640   3.1098   7.8957   H         1 RES1   0.0000
   947 C2      37.8330   3.9260   3.7831   C         1 RES1   0.0000
   948 C5      36.7973   3.5776   2.8405   C         1 RES1   0.0000
   949 H5      36.3468   2.7653   2.8878   H         1 RES1   0.0000
   950 C6      35.0847   3.8125   8.7154   C         1 RES1   0.0000
   951 H6      35.5134   4.2963   9.3837   H         1 RES1   0.0000
   952 C6      36.5100   4.5213   1.8522   C         1 RES1   0.0000
   953 H6      35.8421   4.3481   1.2295   H         1 RES1   0.0000
   954 N       38.0066   0.2249   3.8351   N         1 RES1   0.0000
   955 N       38.3411   3.1934   4.8739   N         1 RES1   0.0000
   956 N       38.3560   0.6510   7.0697   N         1 RES1   0.0000
   957 N       35.6732   1.6146   5.7708   N         1 RES1   0.0000
   958 Zn      37.6253   1.4029   5.3846   Z         1 RES1   0.0000
   959 C2      29.3570   0.0610   6.9399   C         1 RES1   0.0000
   960 C5      28.2110   0.3019   6.2180   C         1 RES1   0.0000
   961 H5      28.2385   0.7200   5.3888   H         1 RES1   0.0000
   962 H6      26.2362   0.0311   6.3047   H         1 RES1   0.0000
   963 C1      29.8179   3.8179   5.3557   C         1 RES1   0.0000
   964 H1      29.3673   3.4953   6.1013   H         1 RES1   0.0000
   965 C2      31.1558   3.9134   3.7211   C         1 RES1   0.0000
   966 C5      32.1122   3.7024   2.6808   C         1 RES1   0.0000
   967 H5      32.5697   2.8981   2.6130   H         1 RES1   0.0000
   968 C2      33.8111   2.3804   6.7255   C         1 RES1   0.0000
   969 C5      32.9915   3.1031   7.6682   C         1 RES1   0.0000
   970 H5      32.0628   3.0872   7.6209   H         1 RES1   0.0000
   971 C6      32.3386   4.7038   1.7933   C         1 RES1   0.0000
   972 H6      32.9720   4.5744   1.1250   H         1 RES1   0.0000
   973 C6      33.6651   3.8238   8.6565   C         1 RES1   0.0000
   974 H6      33.1812   4.3156   9.2792   H         1 RES1   0.0000
   975 N       30.6926   0.3796   6.6735   N         1 RES1   0.0000
   976 N       33.4306   1.5741   5.6347   N         1 RES1   0.0000
   977 N       31.2363   0.2900   3.4390   N         1 RES1   0.0000
   978 N       30.7294   3.0952   4.7378   N         1 RES1   0.0000
   979 Zn      31.5222   1.2988   5.1240   Z         1 RES1   0.0000
   980 C2      42.7411   5.4842   6.9399   C         1 RES1   0.0000
   981 C5      43.1055   4.3713   6.2180   C         1 RES1   0.0000
   982 H5      42.7297   4.1862   5.3888   H         1 RES1   0.0000
   983 H6      44.3274   2.7965   6.3047   H         1 RES1   0.0000
   984 C1      39.2572   4.0050   5.3557   C         1 RES1   0.0000
   985 H1      39.7618   3.7760   6.1013   H         1 RES1   0.0000
   986 C2      38.5054   5.1159   3.7211   C         1 RES1   0.0000
   987 C5      38.2100   6.0497   2.6808   C         1 RES1   0.0000
   988 H5      38.6778   6.8480   2.6130   H         1 RES1   0.0000
   989 C2      38.5054   8.1819   6.7255   C         1 RES1   0.0000
   990 C5      38.2893   7.1108   7.6682   C         1 RES1   0.0000
   991 H5      38.7675   6.3144   7.6209   H         1 RES1   0.0000
   992 C6      37.2295   5.7450   1.7933   C         1 RES1   0.0000
   993 H6      37.0249   6.3582   1.1250   H         1 RES1   0.0000
   994 C6      37.3284   7.3338   8.6565   C         1 RES1   0.0000
   995 H6      37.1445   6.6688   9.2792   H         1 RES1   0.0000
   996 N       41.7975   6.4817   6.6735   N         1 RES1   0.0000
   997 N       39.3940   8.2556   5.6347   N         1 RES1   0.0000
   998 N       41.6032   6.9973   3.4390   N         1 RES1   0.0000
   999 N       39.4273   5.1557   4.7378   N         1 RES1   0.0000
  1000 Zn      40.5866   6.7405   5.1240   Z         1 RES1   0.0000
  1001 C1      37.6100  13.3589   2.7790   C         1 RES1   0.0000
  1002 H1      36.6847  13.2972   2.7112   H         1 RES1   0.0000
  1003 C2      37.1560  14.1573   7.5599   C         1 RES1   0.0000
  1004 C5      36.2157  14.9975   6.9893   C         1 RES1   0.0000
  1005 H5      35.8571  14.8262   6.1476   H         1 RES1   0.0000
  1006 C1      39.1491   9.4548   5.1529   C         1 RES1   0.0000
  1007 H1      39.5997   9.7773   4.4073   H         1 RES1   0.0000
  1008 C2      37.8112   9.3592   6.7875   C         1 RES1   0.0000
  1009 C5      36.8548   9.5702   7.8279   C         1 RES1   0.0000
  1010 H5      36.3973  10.3746   7.8957   H         1 RES1   0.0000
  1011 C2      35.1559  10.8922   3.7831   C         1 RES1   0.0000
  1012 C5      35.9755  10.1695   2.8405   C         1 RES1   0.0000
  1013 H5      36.9042  10.1854   2.8878   H         1 RES1   0.0000
  1014 C6      36.6284   8.5688   8.7154   C         1 RES1   0.0000
  1015 H6      35.9950   8.6982   9.3837   H         1 RES1   0.0000
  1016 C6      35.3019   9.4488   1.8522   C         1 RES1   0.0000
  1017 H6      35.7858   8.9570   1.2295   H         1 RES1   0.0000
  1018 N       38.2744  12.8931   3.8351   N         1 RES1   0.0000
  1019 N       35.5364  11.6985   4.8739   N         1 RES1   0.0000
  1020 N       37.7307  12.9827   7.0697   N         1 RES1   0.0000
  1021 N       38.2376  10.1775   5.7708   N         1 RES1   0.0000
  1022 Zn      37.4448  11.9739   5.3846   Z         1 RES1   0.0000
  1023 C1      27.0983   5.9826   2.7790   C         1 RES1   0.0000
  1024 H1      27.6144   5.2121   2.7112   H         1 RES1   0.0000
  1025 C2      26.2259   7.7884   3.5687   C         1 RES1   0.0000
  1026 C5      25.8615   8.9013   4.2907   C         1 RES1   0.0000
  1027 H5      26.2373   9.0865   5.1198   H         1 RES1   0.0000
  1028 C6      24.9143   9.7216   3.7358   C         1 RES1   0.0000
  1029 H6      24.6396  10.4761   4.2040   H         1 RES1   0.0000
  1030 C6      24.3442   9.4548   2.4638   C         1 RES1   0.0000
  1031 H6      23.7017  10.0341   2.1201   H         1 RES1   0.0000
  1032 C2      26.6339   5.1902   7.5599   C         1 RES1   0.0000
  1033 C5      26.3764   3.9559   6.9893   C         1 RES1   0.0000
  1034 H5      26.7040   3.7309   6.1476   H         1 RES1   0.0000
  1035 C1      29.7098   9.2676   5.1529   C         1 RES1   0.0000
  1036 H1      29.2052   9.4966   4.4073   H         1 RES1   0.0000
  1037 C2      30.4616   8.1567   6.7875   C         1 RES1   0.0000
  1038 C5      30.7570   7.2230   7.8279   C         1 RES1   0.0000
  1039 H5      30.2892   6.4246   7.8957   H         1 RES1   0.0000
  1040 C2      30.4616   5.0907   3.7831   C         1 RES1   0.0000
  1041 C5      30.6777   6.1618   2.8405   C         1 RES1   0.0000
  1042 H5      30.1995   6.9582   2.8878   H         1 RES1   0.0000
  1043 C6      31.7375   7.5276   8.7154   C         1 RES1   0.0000
  1044 H6      31.9421   6.9144   9.3837   H         1 RES1   0.0000
  1045 C6      31.6386   5.9388   1.8522   C         1 RES1   0.0000
  1046 H6      31.8225   6.6038   1.2295   H         1 RES1   0.0000
  1047 N       27.1695   6.7909   3.8351   N         1 RES1   0.0000
  1048 N       29.5730   5.0170   4.8739   N         1 RES1   0.0000
  1049 N       27.3638   6.2753   7.0697   N         1 RES1   0.0000
  1050 N       29.5397   8.1169   5.7708   N         1 RES1   0.0000
  1051 Zn      28.3804   6.5321   5.3846   Z         1 RES1   0.0000
  1052 C1      30.2248  12.7053   7.7296   C         1 RES1   0.0000
  1053 H1      29.8156  11.8731   7.7974   H         1 RES1   0.0000
  1054 C2      31.3524  14.3637   6.9399   C         1 RES1   0.0000
  1055 C5      32.1340  15.2357   6.2180   C         1 RES1   0.0000
  1056 H5      32.4823  15.0028   5.3888   H         1 RES1   0.0000
  1057 C6      32.3708  16.4661   6.7728   C         1 RES1   0.0000
  1058 H6      32.8869  17.0813   6.3047   H         1 RES1   0.0000
  1059 C6      31.8547  16.8264   8.0449   C         1 RES1   0.0000
  1060 H6      32.0352  17.6726   8.3885   H         1 RES1   0.0000
  1061 C2      29.3064  12.7112   2.9487   C         1 RES1   0.0000
  1062 C5      28.1087  12.3170   3.5194   C         1 RES1   0.0000
  1063 H5      28.0776  11.9208   4.3611   H         1 RES1   0.0000
  1064 C1      34.3755  12.0861   5.3557   C         1 RES1   0.0000
  1065 H1      34.3214  12.6376   6.1013   H         1 RES1   0.0000
  1066 C2      33.7892  10.8796   3.7211   C         1 RES1   0.0000
  1067 C5      33.1283  10.1569   2.6808   C         1 RES1   0.0000
  1068 H5      32.2030  10.1629   2.6130   H         1 RES1   0.0000
  1069 C2      31.1340   9.3466   6.7255   C         1 RES1   0.0000
  1070 C5      32.1697   9.6950   7.6682   C         1 RES1   0.0000
  1071 H5      32.6202  10.5073   7.6209   H         1 RES1   0.0000
  1072 C6      33.8823   9.4601   1.7933   C         1 RES1   0.0000
  1073 H6      33.4536   8.9763   1.1250   H         1 RES1   0.0000
  1074 C6      32.4570   8.7513   8.6565   C         1 RES1   0.0000
  1075 H6      33.1249   8.9245   9.2792   H         1 RES1   0.0000
  1076 N       30.9604  13.0477   6.6735   N         1 RES1   0.0000
  1077 N       30.6259  10.0793   5.6347   N         1 RES1   0.0000
  1078 N       30.6110  12.6216   3.4390   N         1 RES1   0.0000
  1079 N       33.2938  11.6580   4.7378   N         1 RES1   0.0000
  1080 Zn      31.3417  11.8697   5.1240   Z         1 RES1   0.0000
  1081 C1      27.2477   7.2037   8.0334   C         1 RES1   0.0000
  1082 C1      37.6100   0.0862   8.0334   C         1 RES1   0.0000
  1083 C1      38.5928  12.6190   8.0334   C         1 RES1   0.0000
  1084 C1      41.7193   6.0689   2.4753   C         1 RES1   0.0000
  1085 C1      31.3570  13.1864   2.4753   C         1 RES1   0.0000
  1086 C1      30.3742   0.6536   2.4753   C         1 RES1   0.0000
  1087 C2      26.1201   5.5453   8.8231   C         1 RES1   0.0000
  1088 C2      29.3570  13.3337   1.6856   C         1 RES1   0.0000
  1089 C6      25.6178   3.0825   7.7181   C         1 RES1   0.0000
  1090 C6      41.9940   0.7353   7.7181   C         1 RES1   0.0000
  1091 C6      35.8387  16.0911   7.7181   C         1 RES1   0.0000
  1092 C6      26.9730  12.5374   2.7906   C         1 RES1   0.0000
  1093 C2      25.6615   7.5209   2.3056   C         1 RES1   0.0000
  1094 C2      30.8386  14.7187   8.2031   C         1 RES1   0.0000
  1095 C5      24.7212   8.3611   1.7350   C         1 RES1   0.0000
  1096 C5      31.0961  15.9531   8.7737   C         1 RES1   0.0000
  1097 N       26.2362   6.3463   1.8154   N         1 RES1   0.0000
  1098 N       30.1087  13.6337   8.6933   N         1 RES1   0.0000
  1099 C1      38.7422   0.5674  18.5420   C         1 RES1   0.0000
  1100 H1      39.1514   1.3996  18.4742   H         1 RES1   0.0000
  1101 C2      39.6606   0.5614  23.3229   C         1 RES1   0.0000
  1102 C5      40.8583   0.9556  22.7523   C         1 RES1   0.0000
  1103 H5      40.8894   1.3518  21.9106   H         1 RES1   0.0000
  1104 C1      34.5915   1.1865  20.9159   C         1 RES1   0.0000
  1105 H1      34.6456   0.6351  20.1703   H         1 RES1   0.0000
  1106 C2      35.1778   2.3930  22.5505   C         1 RES1   0.0000
  1107 C5      35.8387   3.1157  23.5909   C         1 RES1   0.0000
  1108 H5      36.7640   3.1098  23.6587   H         1 RES1   0.0000
  1109 C2      37.8330   3.9260  19.5461   C         1 RES1   0.0000
  1110 C5      36.7973   3.5776  18.6035   C         1 RES1   0.0000
  1111 H5      36.3468   2.7653  18.6508   H         1 RES1   0.0000
  1112 C6      35.0847   3.8125  24.4784   C         1 RES1   0.0000
  1113 H6      35.5134   4.2963  25.1467   H         1 RES1   0.0000
  1114 C6      36.5100   4.5213  17.6152   C         1 RES1   0.0000
  1115 H6      35.8421   4.3481  16.9925   H         1 RES1   0.0000
  1116 N       38.0066   0.2249  19.5981   N         1 RES1   0.0000
  1117 N       38.3411   3.1934  20.6369   N         1 RES1   0.0000
  1118 N       38.3560   0.6510  22.8327   N         1 RES1   0.0000
  1119 N       35.6732   1.6146  21.5338   N         1 RES1   0.0000
  1120 Zn      37.6253   1.4029  21.1476   Z         1 RES1   0.0000
  1121 C2      29.3570   0.0610  22.7029   C         1 RES1   0.0000
  1122 C5      28.2110   0.3019  21.9810   C         1 RES1   0.0000
  1123 H5      28.2385   0.7200  21.1518   H         1 RES1   0.0000
  1124 H6      26.2362   0.0311  22.0677   H         1 RES1   0.0000
  1125 C1      29.8179   3.8179  21.1187   C         1 RES1   0.0000
  1126 H1      29.3673   3.4953  21.8643   H         1 RES1   0.0000
  1127 C2      31.1558   3.9134  19.4841   C         1 RES1   0.0000
  1128 C5      32.1122   3.7024  18.4438   C         1 RES1   0.0000
  1129 H5      32.5697   2.8981  18.3760   H         1 RES1   0.0000
  1130 C2      33.8111   2.3804  22.4885   C         1 RES1   0.0000
  1131 C5      32.9915   3.1031  23.4312   C         1 RES1   0.0000
  1132 H5      32.0628   3.0872  23.3839   H         1 RES1   0.0000
  1133 C6      32.3386   4.7038  17.5563   C         1 RES1   0.0000
  1134 H6      32.9720   4.5744  16.8880   H         1 RES1   0.0000
  1135 C6      33.6651   3.8238  24.4195   C         1 RES1   0.0000
  1136 H6      33.1812   4.3156  25.0422   H         1 RES1   0.0000
  1137 N       30.6926   0.3796  22.4365   N         1 RES1   0.0000
  1138 N       33.4306   1.5741  21.3977   N         1 RES1   0.0000
  1139 N       31.2363   0.2900  19.2020   N         1 RES1   0.0000
  1140 N       30.7294   3.0952  20.5008   N         1 RES1   0.0000
  1141 Zn      31.5222   1.2988  20.8870   Z         1 RES1   0.0000
  1142 C2      42.7411   5.4842  22.7029   C         1 RES1   0.0000
  1143 C5      43.1055   4.3713  21.9810   C         1 RES1   0.0000
  1144 H5      42.7297   4.1862  21.1518   H         1 RES1   0.0000
  1145 H6      44.3274   2.7965  22.0677   H         1 RES1   0.0000
  1146 C1      39.2572   4.0050  21.1187   C         1 RES1   0.0000
  1147 H1      39.7618   3.7760  21.8643   H         1 RES1   0.0000
  1148 C2      38.5054   5.1159  19.4841   C         1 RES1   0.0000
  1149 C5      38.2100   6.0497  18.4438   C         1 RES1   0.0000
  1150 H5      38.6778   6.8480  18.3760   H         1 RES1   0.0000
  1151 C2      38.5054   8.1819  22.4885   C         1 RES1   0.0000
  1152 C5      38.2893   7.1108  23.4312   C         1 RES1   0.0000
  1153 H5      38.7675   6.3144  23.3839   H         1 RES1   0.0000
  1154 C6      37.2295   5.7450  17.5563   C         1 RES1   0.0000
  1155 H6      37.0249   6.3582  16.8880   H         1 RES1   0.0000
  1156 C6      37.3284   7.3338  24.4195   C         1 RES1   0.0000
  1157 H6      37.1445   6.6688  25.0422   H         1 RES1   0.0000
  1158 N       41.7975   6.4817  22.4365   N         1 RES1   0.0000
  1159 N       39.3940   8.2556  21.3977   N         1 RES1   0.0000
  1160 N       41.6032   6.9973  19.2020   N         1 RES1   0.0000
  1161 N       39.4273   5.1557  20.5008   N         1 RES1   0.0000
  1162 Zn      40.5866   6.7405  20.8870   Z         1 RES1   0.0000
  1163 C1      37.6100  13.3589  18.5420   C         1 RES1   0.0000
  1164 H1      36.6847  13.2972  18.4742   H         1 RES1   0.0000
  1165 C2      37.1560  14.1573  23.3229   C         1 RES1   0.0000
  1166 C5      36.2157  14.9975  22.7523   C         1 RES1   0.0000
  1167 H5      35.8571  14.8262  21.9106   H         1 RES1   0.0000
  1168 C1      39.1491   9.4548  20.9159   C         1 RES1   0.0000
  1169 H1      39.5997   9.7773  20.1703   H         1 RES1   0.0000
  1170 C2      37.8112   9.3592  22.5505   C         1 RES1   0.0000
  1171 C5      36.8548   9.5702  23.5909   C         1 RES1   0.0000
  1172 H5      36.3973  10.3746  23.6587   H         1 RES1   0.0000
  1173 C2      35.1559  10.8922  19.5461   C         1 RES1   0.0000
  1174 C5      35.9755  10.1695  18.6035   C         1 RES1   0.0000
  1175 H5      36.9042  10.1854  18.6508   H         1 RES1   0.0000
  1176 C6      36.6284   8.5688  24.4784   C         1 RES1   0.0000
  1177 H6      35.9950   8.6982  25.1467   H         1 RES1   0.0000
  1178 C6      35.3019   9.4488  17.6152   C         1 RES1   0.0000
  1179 H6      35.7858   8.9570  16.9925   H         1 RES1   0.0000
  1180 N       38.2744  12.8931  19.5981   N         1 RES1   0.0000
  1181 N       35.5364  11.6985  20.6369   N         1 RES1   0.0000
  1182 N       37.7307  12.9827  22.8327   N         1 RES1   0.0000
  1183 N       38.2376  10.1775  21.5338   N         1 RES1   0.0000
  1184 Zn      37.4448  11.9739  21.1476   Z         1 RES1   0.0000
  1185 C1      27.0983   5.9826  18.5420   C         1 RES1   0.0000
  1186 H1      27.6144   5.2121  18.4742   H         1 RES1   0.0000
  1187 C2      26.2259   7.7884  19.3317   C         1 RES1   0.0000
  1188 C5      25.8615   8.9013  20.0537   C         1 RES1   0.0000
  1189 H5      26.2373   9.0865  20.8828   H         1 RES1   0.0000
  1190 C6      24.9143   9.7216  19.4988   C         1 RES1   0.0000
  1191 H6      24.6396  10.4761  19.9670   H         1 RES1   0.0000
  1192 C6      24.3442   9.4548  18.2268   C         1 RES1   0.0000
  1193 H6      23.7017  10.0341  17.8831   H         1 RES1   0.0000
  1194 C2      26.6339   5.1902  23.3229   C         1 RES1   0.0000
  1195 C5      26.3764   3.9559  22.7523   C         1 RES1   0.0000
  1196 H5      26.7040   3.7309  21.9106   H         1 RES1   0.0000
  1197 C1      29.7098   9.2676  20.9159   C         1 RES1   0.0000
  1198 H1      29.2052   9.4966  20.1703   H         1 RES1   0.0000
  1199 C2      30.4616   8.1567  22.5505   C         1 RES1   0.0000
  1200 C5      30.7570   7.2230  23.5909   C         1 RES1   0.0000
  1201 H5      30.2892   6.4246  23.6587   H         1 RES1   0.0000
  1202 C2      30.4616   5.0907  19.5461   C         1 RES1   0.0000
  1203 C5      30.6777   6.1618  18.6035   C         1 RES1   0.0000
  1204 H5      30.1995   6.9582  18.6508   H         1 RES1   0.0000
  1205 C6      31.7375   7.5276  24.4784   C         1 RES1   0.0000
  1206 H6      31.9421   6.9144  25.1467   H         1 RES1   0.0000
  1207 C6      31.6386   5.9388  17.6152   C         1 RES1   0.0000
  1208 H6      31.8225   6.6038  16.9925   H         1 RES1   0.0000
  1209 N       27.1695   6.7909  19.5981   N         1 RES1   0.0000
  1210 N       29.5730   5.0170  20.6369   N         1 RES1   0.0000
  1211 N       27.3638   6.2753  22.8327   N         1 RES1   0.0000
  1212 N       29.5397   8.1169  21.5338   N         1 RES1   0.0000
  1213 Zn      28.3804   6.5321  21.1476   Z         1 RES1   0.0000
  1214 C1      30.2248  12.7053  23.4926   C         1 RES1   0.0000
  1215 H1      29.8156  11.8731  23.5604   H         1 RES1   0.0000
  1216 C2      31.3524  14.3637  22.7029   C         1 RES1   0.0000
  1217 C5      32.1340  15.2357  21.9810   C         1 RES1   0.0000
  1218 H5      32.4823  15.0028  21.1518   H         1 RES1   0.0000
  1219 C6      32.3708  16.4661  22.5358   C         1 RES1   0.0000
  1220 H6      32.8869  17.0813  22.0677   H         1 RES1   0.0000
  1221 C6      31.8547  16.8264  23.8079   C         1 RES1   0.0000
  1222 H6      32.0352  17.6726  24.1515   H         1 RES1   0.0000
  1223 C2      29.3064  12.7112  18.7117   C         1 RES1   0.0000
  1224 C5      28.1087  12.3170  19.2824   C         1 RES1   0.0000
  1225 H5      28.0776  11.9208  20.1241   H         1 RES1   0.0000
  1226 C1      34.3755  12.0861  21.1187   C         1 RES1   0.0000
  1227 H1      34.3214  12.6376  21.8643   H         1 RES1   0.0000
  1228 C2      33.7892  10.8796  19.4841   C         1 RES1   0.0000
  1229 C5      33.1283  10.1569  18.4438   C         1 RES1   0.0000
  1230 H5      32.2030  10.1629  18.3760   H         1 RES1   0.0000
  1231 C2      31.1340   9.3466  22.4885   C         1 RES1   0.0000
  1232 C5      32.1697   9.6950  23.4312   C         1 RES1   0.0000
  1233 H5      32.6202  10.5073  23.3839   H         1 RES1   0.0000
  1234 C6      33.8823   9.4601  17.5563   C         1 RES1   0.0000
  1235 H6      33.4536   8.9763  16.8880   H         1 RES1   0.0000
  1236 C6      32.4570   8.7513  24.4195   C         1 RES1   0.0000
  1237 H6      33.1249   8.9245  25.0422   H         1 RES1   0.0000
  1238 N       30.9604  13.0477  22.4365   N         1 RES1   0.0000
  1239 N       30.6259  10.0793  21.3977   N         1 RES1   0.0000
  1240 N       30.6110  12.6216  19.2020   N         1 RES1   0.0000
  1241 N       33.2938  11.6580  20.5008   N         1 RES1   0.0000
  1242 Zn      31.3417  11.8697  20.8870   Z         1 RES1   0.0000
  1243 C1      27.2477   7.2037  23.7964   C         1 RES1   0.0000
  1244 C1      37.6100   0.0862  23.7964   C         1 RES1   0.0000
  1245 C1      38.5928  12.6190  23.7964   C         1 RES1   0.0000
  1246 C1      41.7193   6.0689  18.2383   C         1 RES1   0.0000
  1247 C1      31.3570  13.1864  18.2383   C         1 RES1   0.0000
  1248 C1      30.3742   0.6536  18.2383   C         1 RES1   0.0000
  1249 C2      26.1201   5.5453  24.5861   C         1 RES1   0.0000
  1250 C2      29.3570  13.3337  17.4486   C         1 RES1   0.0000
  1251 C6      25.6178   3.0825  23.4811   C         1 RES1   0.0000
  1252 C6      41.9940   0.7353  23.4811   C         1 RES1   0.0000
  1253 C6      35.8387  16.0911  23.4811   C         1 RES1   0.0000
  1254 C6      26.9730  12.5374  18.5536   C         1 RES1   0.0000
  1255 C2      25.6615   7.5209  18.0686   C         1 RES1   0.0000
  1256 C2      30.8386  14.7187  23.9661   C         1 RES1   0.0000
  1257 C5      24.7212   8.3611  17.4980   C         1 RES1   0.0000
  1258 C5      31.0961  15.9531  24.5367   C         1 RES1   0.0000
  1259 N       26.2362   6.3463  17.5784   N         1 RES1   0.0000
  1260 N       30.1087  13.6337  24.4563   N         1 RES1   0.0000
  1261 C1      27.2477  20.4764   2.7790   C         1 RES1   0.0000
  1262 H1      27.6569  21.3086   2.7112   H         1 RES1   0.0000
  1263 C2      26.1201  18.8180   3.5687   C         1 RES1   0.0000
  1264 C5      25.3385  17.9460   4.2907   C         1 RES1   0.0000
  1265 H5      24.9902  18.1789   5.1198   H         1 RES1   0.0000
  1266 C6      25.1017  16.7156   3.7358   C         1 RES1   0.0000
  1267 H6      24.5856  16.1004   4.2040   H         1 RES1   0.0000
  1268 C6      25.6178  16.3552   2.4638   C         1 RES1   0.0000
  1269 H6      25.4373  15.5091   2.1201   H         1 RES1   0.0000
  1270 C2      28.1661  20.4705   7.5599   C         1 RES1   0.0000
  1271 C5      29.3638  20.8647   6.9893   C         1 RES1   0.0000
  1272 H5      29.3949  21.2608   6.1476   H         1 RES1   0.0000
  1273 C1      23.0970  21.0956   5.1529   C         1 RES1   0.0000
  1274 H1      23.1511  20.5441   4.4073   H         1 RES1   0.0000
  1275 C2      23.6833  22.3021   6.7875   C         1 RES1   0.0000
  1276 C5      24.3442  23.0248   7.8279   C         1 RES1   0.0000
  1277 H5      25.2695  23.0188   7.8957   H         1 RES1   0.0000
  1278 C2      26.3385  23.8351   3.7831   C         1 RES1   0.0000
  1279 C5      25.3028  23.4867   2.8405   C         1 RES1   0.0000
  1280 H5      24.8523  22.6744   2.8878   H         1 RES1   0.0000
  1281 C6      23.5902  23.7216   8.7154   C         1 RES1   0.0000
  1282 H6      24.0189  24.2054   9.3837   H         1 RES1   0.0000
  1283 C6      25.0155  24.4304   1.8522   C         1 RES1   0.0000
  1284 H6      24.3476  24.2572   1.2295   H         1 RES1   0.0000
  1285 N       26.5121  20.1340   3.8351   N         1 RES1   0.0000
  1286 N       26.8466  23.1024   4.8739   N         1 RES1   0.0000
  1287 N       26.8615  20.5600   7.0697   N         1 RES1   0.0000
  1288 N       24.1787  21.5236   5.7708   N         1 RES1   0.0000
  1289 Zn      26.1308  21.3120   5.3846   Z         1 RES1   0.0000
  1290 C1      19.8625  19.8227   7.7296   C         1 RES1   0.0000
  1291 H1      20.7878  19.8845   7.7974   H         1 RES1   0.0000
  1292 C2      17.8625  19.9701   6.9399   C         1 RES1   0.0000
  1293 C5      16.7165  20.2110   6.2180   C         1 RES1   0.0000
  1294 H5      16.7440  20.6291   5.3888   H         1 RES1   0.0000
  1295 C6      15.5325  19.8008   6.7728   C         1 RES1   0.0000
  1296 H6      14.7417  19.9402   6.3047   H         1 RES1   0.0000
  1297 C6      15.4785  19.1737   8.0449   C         1 RES1   0.0000
  1298 H6      14.6555  18.9069   8.3885   H         1 RES1   0.0000
  1299 C2      20.3165  19.0244   2.9487   C         1 RES1   0.0000
  1300 C5      21.2568  18.1842   3.5194   C         1 RES1   0.0000
  1301 H5      21.6154  18.3554   4.3611   H         1 RES1   0.0000
  1302 C1      18.3234  23.7269   5.3557   C         1 RES1   0.0000
  1303 H1      17.8728  23.4044   6.1013   H         1 RES1   0.0000
  1304 C2      19.6613  23.8225   3.7211   C         1 RES1   0.0000
  1305 C5      20.6177  23.6114   2.6808   C         1 RES1   0.0000
  1306 H5      21.0752  22.8071   2.6130   H         1 RES1   0.0000
  1307 C2      22.3166  22.2895   6.7255   C         1 RES1   0.0000
  1308 C5      21.4970  23.0122   7.6682   C         1 RES1   0.0000
  1309 H5      20.5683  22.9962   7.6209   H         1 RES1   0.0000
  1310 C6      20.8441  24.6129   1.7933   C         1 RES1   0.0000
  1311 H6      21.4775  24.4835   1.1250   H         1 RES1   0.0000
  1312 C6      22.1706  23.7329   8.6565   C         1 RES1   0.0000
  1313 H6      21.6867  24.2246   9.2792   H         1 RES1   0.0000
  1314 N       19.1981  20.2886   6.6735   N         1 RES1   0.0000
  1315 N       21.9361  21.4832   5.6347   N         1 RES1   0.0000
  1316 N       19.7418  20.1990   3.4390   N         1 RES1   0.0000
  1317 N       19.2349  23.0042   4.7378   N         1 RES1   0.0000
  1318 Zn      20.0277  21.2078   5.1240   Z         1 RES1   0.0000
  1319 C2      31.2466  25.3933   6.9399   C         1 RES1   0.0000
  1320 C5      31.6110  24.2804   6.2180   C         1 RES1   0.0000
  1321 H5      31.2352  24.0952   5.3888   H         1 RES1   0.0000
  1322 H6      32.8329  22.7056   6.3047   H         1 RES1   0.0000
  1323 C1      27.7627  23.9141   5.3557   C         1 RES1   0.0000
  1324 H1      28.2673  23.6851   6.1013   H         1 RES1   0.0000
  1325 C2      27.0109  25.0250   3.7211   C         1 RES1   0.0000
  1326 C5      26.7155  25.9587   2.6808   C         1 RES1   0.0000
  1327 H5      27.1833  26.7571   2.6130   H         1 RES1   0.0000
  1328 C2      27.0109  28.0910   6.7255   C         1 RES1   0.0000
  1329 C5      26.7948  27.0199   7.6682   C         1 RES1   0.0000
  1330 H5      27.2730  26.2235   7.6209   H         1 RES1   0.0000
  1331 C6      25.7350  25.6541   1.7933   C         1 RES1   0.0000
  1332 H6      25.5304  26.2673   1.1250   H         1 RES1   0.0000
  1333 C6      25.8339  27.2428   8.6565   C         1 RES1   0.0000
  1334 H6      25.6500  26.5779   9.2792   H         1 RES1   0.0000
  1335 N       30.3030  26.3907   6.6735   N         1 RES1   0.0000
  1336 N       27.8995  28.1646   5.6347   N         1 RES1   0.0000
  1337 N       30.1087  26.9064   3.4390   N         1 RES1   0.0000
  1338 N       27.9328  25.0648   4.7378   N         1 RES1   0.0000
  1339 Zn      29.0921  26.6496   5.1240   Z         1 RES1   0.0000
  1340 C1      26.1155  33.2680   2.7790   C         1 RES1   0.0000
  1341 H1      25.1902  33.2063   2.7112   H         1 RES1   0.0000
  1342 C2      25.6615  34.0663   7.5599   C         1 RES1   0.0000
  1343 C5      24.7212  34.9065   6.9893   C         1 RES1   0.0000
  1344 H5      24.3626  34.7353   6.1476   H         1 RES1   0.0000
  1345 C1      27.6546  29.3638   5.1529   C         1 RES1   0.0000
  1346 H1      28.1052  29.6864   4.4073   H         1 RES1   0.0000
  1347 C2      26.3167  29.2683   6.7875   C         1 RES1   0.0000
  1348 C5      25.3603  29.4793   7.8279   C         1 RES1   0.0000
  1349 H5      24.9028  30.2836   7.8957   H         1 RES1   0.0000
  1350 C2      23.6614  30.8013   3.7831   C         1 RES1   0.0000
  1351 C5      24.4810  30.0786   2.8405   C         1 RES1   0.0000
  1352 H5      25.4097  30.0945   2.8878   H         1 RES1   0.0000
  1353 C6      25.1339  28.4779   8.7154   C         1 RES1   0.0000
  1354 H6      24.5005  28.6073   9.3837   H         1 RES1   0.0000
  1355 C6      23.8074  29.3579   1.8522   C         1 RES1   0.0000
  1356 H6      24.2913  28.8661   1.2295   H         1 RES1   0.0000
  1357 N       26.7799  32.8021   3.8351   N         1 RES1   0.0000
  1358 N       24.0419  31.6076   4.8739   N         1 RES1   0.0000
  1359 N       26.2362  32.8917   7.0697   N         1 RES1   0.0000
  1360 N       26.7431  30.0865   5.7708   N         1 RES1   0.0000
  1361 Zn      25.9503  31.8829   5.3846   Z         1 RES1   0.0000
  1362 C1      15.6038  25.8917   2.7790   C         1 RES1   0.0000
  1363 H1      16.1199  25.1212   2.7112   H         1 RES1   0.0000
  1364 C2      14.7314  27.6974   3.5687   C         1 RES1   0.0000
  1365 C5      14.3670  28.8104   4.2907   C         1 RES1   0.0000
  1366 H5      14.7428  28.9955   5.1198   H         1 RES1   0.0000
  1367 C6      13.4198  29.6306   3.7358   C         1 RES1   0.0000
  1368 H6      13.1451  30.3852   4.2040   H         1 RES1   0.0000
  1369 C6      12.8497  29.3638   2.4638   C         1 RES1   0.0000
  1370 H6      12.2072  29.9432   2.1201   H         1 RES1   0.0000
  1371 C2      15.1394  25.0993   7.5599   C         1 RES1   0.0000
  1372 C5      14.8819  23.8649   6.9893   C         1 RES1   0.0000
  1373 H5      15.2095  23.6400   6.1476   H         1 RES1   0.0000
  1374 C1      18.2153  29.1767   5.1529   C         1 RES1   0.0000
  1375 H1      17.7107  29.4056   4.4073   H         1 RES1   0.0000
  1376 C2      18.9671  28.0658   6.7875   C         1 RES1   0.0000
  1377 C5      19.2625  27.1320   7.8279   C         1 RES1   0.0000
  1378 H5      18.7947  26.3337   7.8957   H         1 RES1   0.0000
  1379 C2      18.9671  24.9998   3.7831   C         1 RES1   0.0000
  1380 C5      19.1832  26.0709   2.8405   C         1 RES1   0.0000
  1381 H5      18.7050  26.8672   2.8878   H         1 RES1   0.0000
  1382 C6      20.2430  27.4366   8.7154   C         1 RES1   0.0000
  1383 H6      20.4476  26.8234   9.3837   H         1 RES1   0.0000
  1384 C6      20.1441  25.8479   1.8522   C         1 RES1   0.0000
  1385 H6      20.3280  26.5129   1.2295   H         1 RES1   0.0000
  1386 N       15.6750  26.7000   3.8351   N         1 RES1   0.0000
  1387 N       18.0785  24.9261   4.8739   N         1 RES1   0.0000
  1388 N       15.8693  26.1844   7.0697   N         1 RES1   0.0000
  1389 N       18.0452  28.0259   5.7708   N         1 RES1   0.0000
  1390 Zn      16.8859  26.4412   5.3846   Z         1 RES1   0.0000
  1391 C1      18.7303  32.6143   7.7296   C         1 RES1   0.0000
  1392 H1      18.3211  31.7821   7.7974   H         1 RES1   0.0000
  1393 C2      19.8579  34.2727   6.9399   C         1 RES1   0.0000
  1394 C5      20.6395  35.1448   6.2180   C         1 RES1   0.0000
  1395 H5      20.9878  34.9118   5.3888   H         1 RES1   0.0000
  1396 C6      20.8763  36.3751   6.7728   C         1 RES1   0.0000
  1397 H6      21.3924  36.9903   6.3047   H         1 RES1   0.0000
  1398 C6      20.3602  36.7355   8.0449   C         1 RES1   0.0000
  1399 H6      20.5407  37.5816   8.3885   H         1 RES1   0.0000
  1400 C2      17.8119  32.6203   2.9487   C         1 RES1   0.0000
  1401 C5      16.6142  32.2261   3.5194   C         1 RES1   0.0000
  1402 H5      16.5831  31.8299   4.3611   H         1 RES1   0.0000
  1403 C1      22.8810  31.9951   5.3557   C         1 RES1   0.0000
  1404 H1      22.8269  32.5466   6.1013   H         1 RES1   0.0000
  1405 C2      22.2947  30.7887   3.7211   C         1 RES1   0.0000
  1406 C5      21.6338  30.0660   2.6808   C         1 RES1   0.0000
  1407 H5      20.7085  30.0719   2.6130   H         1 RES1   0.0000
  1408 C2      19.6395  29.2557   6.7255   C         1 RES1   0.0000
  1409 C5      20.6752  29.6041   7.6682   C         1 RES1   0.0000
  1410 H5      21.1257  30.4164   7.6209   H         1 RES1   0.0000
  1411 C6      22.3878  29.3691   1.7933   C         1 RES1   0.0000
  1412 H6      21.9591  28.8853   1.1250   H         1 RES1   0.0000
  1413 C6      20.9625  28.6604   8.6565   C         1 RES1   0.0000
  1414 H6      21.6304  28.8336   9.2792   H         1 RES1   0.0000
  1415 N       19.4659  32.9567   6.6735   N         1 RES1   0.0000
  1416 N       19.1314  29.9883   5.6347   N         1 RES1   0.0000
  1417 N       19.1165  32.5307   3.4390   N         1 RES1   0.0000
  1418 N       21.7993  31.5671   4.7378   N         1 RES1   0.0000
  1419 Zn      19.8472  31.7787   5.1240   Z         1 RES1   0.0000
  1420 C1      15.7532  27.1128   8.0334   C         1 RES1   0.0000
  1421 C1      26.1155  19.9953   8.0334   C         1 RES1   0.0000
  1422 C1      27.0983  32.5280   8.0334   C         1 RES1   0.0000
  1423 C1      30.2248  25.9780   2.4753   C         1 RES1   0.0000
  1424 C1      19.8625  33.0954   2.4753   C         1 RES1   0.0000
  1425 C1      18.8797  20.5627   2.4753   C         1 RES1   0.0000
  1426 C2      14.6256  25.4544   8.8231   C         1 RES1   0.0000
  1427 C2      28.1155  19.8480   8.8231   C         1 RES1   0.0000
  1428 C2      17.8625  33.2428   1.6856   C         1 RES1   0.0000
  1429 C2      19.7521  18.7569   1.6856   C         1 RES1   0.0000
  1430 C6      14.1233  22.9916   7.7181   C         1 RES1   0.0000
  1431 C6      30.4995  20.6443   7.7181   C         1 RES1   0.0000
  1432 C6      24.3442  36.0002   7.7181   C         1 RES1   0.0000
  1433 C6      15.4785  32.4464   2.7906   C         1 RES1   0.0000
  1434 C6      21.6338  17.0906   2.7906   C         1 RES1   0.0000
  1435 C2      14.1670  27.4300   2.3056   C         1 RES1   0.0000
  1436 C2      26.6339  18.4630   2.3056   C         1 RES1   0.0000
  1437 C2      17.8119  19.3476   8.2031   C         1 RES1   0.0000
  1438 C2      19.3441  34.6278   8.2031   C         1 RES1   0.0000
  1439 C5      13.2267  28.2702   1.7350   C         1 RES1   0.0000
  1440 C5      26.3764  17.2286   1.7350   C         1 RES1   0.0000
  1441 C5      16.6142  18.9534   8.7737   C         1 RES1   0.0000
  1442 C5      19.6016  35.8621   8.7737   C         1 RES1   0.0000
  1443 N       14.7417  26.2554   1.8154   N         1 RES1   0.0000
  1444 N       27.3638  19.5480   1.8154   N         1 RES1   0.0000
  1445 N       19.1165  19.2580   8.6933   N         1 RES1   0.0000
  1446 N       18.6142  33.5427   8.6933   N         1 RES1   0.0000
  1447 C1      27.2477  20.4764  18.5420   C         1 RES1   0.0000
  1448 H1      27.6569  21.3086  18.4742   H         1 RES1   0.0000
  1449 C2      26.1201  18.8180  19.3317   C         1 RES1   0.0000
  1450 C5      25.3385  17.9460  20.0537   C         1 RES1   0.0000
  1451 H5      24.9902  18.1789  20.8828   H         1 RES1   0.0000
  1452 C6      25.1017  16.7156  19.4988   C         1 RES1   0.0000
  1453 H6      24.5856  16.1004  19.9670   H         1 RES1   0.0000
  1454 C6      25.6178  16.3552  18.2268   C         1 RES1   0.0000
  1455 H6      25.4373  15.5091  17.8831   H         1 RES1   0.0000
  1456 C2      28.1661  20.4705  23.3229   C         1 RES1   0.0000
  1457 C5      29.3638  20.8647  22.7523   C         1 RES1   0.0000
  1458 H5      29.3949  21.2608  21.9106   H         1 RES1   0.0000
  1459 C1      23.0970  21.0956  20.9159   C         1 RES1   0.0000
  1460 H1      23.1511  20.5441  20.1703   H         1 RES1   0.0000
  1461 C2      23.6833  22.3021  22.5505   C         1 RES1   0.0000
  1462 C5      24.3442  23.0248  23.5909   C         1 RES1   0.0000
  1463 H5      25.2695  23.0188  23.6587   H         1 RES1   0.0000
  1464 C2      26.3385  23.8351  19.5461   C         1 RES1   0.0000
  1465 C5      25.3028  23.4867  18.6035   C         1 RES1   0.0000
  1466 H5      24.8523  22.6744  18.6508   H         1 RES1   0.0000
  1467 C6      23.5902  23.7216  24.4784   C         1 RES1   0.0000
  1468 H6      24.0189  24.2054  25.1467   H         1 RES1   0.0000
  1469 C6      25.0155  24.4304  17.6152   C         1 RES1   0.0000
  1470 H6      24.3476  24.2572  16.9925   H         1 RES1   0.0000
  1471 N       26.5121  20.1340  19.5981   N         1 RES1   0.0000
  1472 N       26.8466  23.1024  20.6369   N         1 RES1   0.0000
  1473 N       26.8615  20.5600  22.8327   N         1 RES1   0.0000
  1474 N       24.1787  21.5236  21.5338   N         1 RES1   0.0000
  1475 Zn      26.1308  21.3120  21.1476   Z         1 RES1   0.0000
  1476 C1      19.8625  19.8227  23.4926   C         1 RES1   0.0000
  1477 H1      20.7878  19.8845  23.5604   H         1 RES1   0.0000
  1478 C2      17.8625  19.9701  22.7029   C         1 RES1   0.0000
  1479 C5      16.7165  20.2110  21.9810   C         1 RES1   0.0000
  1480 H5      16.7440  20.6291  21.1518   H         1 RES1   0.0000
  1481 C6      15.5325  19.8008  22.5358   C         1 RES1   0.0000
  1482 H6      14.7417  19.9402  22.0677   H         1 RES1   0.0000
  1483 C6      15.4785  19.1737  23.8079   C         1 RES1   0.0000
  1484 H6      14.6555  18.9069  24.1515   H         1 RES1   0.0000
  1485 C2      20.3165  19.0244  18.7117   C         1 RES1   0.0000
  1486 C5      21.2568  18.1842  19.2824   C         1 RES1   0.0000
  1487 H5      21.6154  18.3554  20.1241   H         1 RES1   0.0000
  1488 C1      18.3234  23.7269  21.1187   C         1 RES1   0.0000
  1489 H1      17.8728  23.4044  21.8643   H         1 RES1   0.0000
  1490 C2      19.6613  23.8225  19.4841   C         1 RES1   0.0000
  1491 C5      20.6177  23.6114  18.4438   C         1 RES1   0.0000
  1492 H5      21.0752  22.8071  18.3760   H         1 RES1   0.0000
  1493 C2      22.3166  22.2895  22.4885   C         1 RES1   0.0000
  1494 C5      21.4970  23.0122  23.4312   C         1 RES1   0.0000
  1495 H5      20.5683  22.9962  23.3839   H         1 RES1   0.0000
  1496 C6      20.8441  24.6129  17.5563   C         1 RES1   0.0000
  1497 H6      21.4775  24.4835  16.8880   H         1 RES1   0.0000
  1498 C6      22.1706  23.7329  24.4195   C         1 RES1   0.0000
  1499 H6      21.6867  24.2246  25.0422   H         1 RES1   0.0000
  1500 N       19.1981  20.2886  22.4365   N         1 RES1   0.0000
  1501 N       21.9361  21.4832  21.3977   N         1 RES1   0.0000
  1502 N       19.7418  20.1990  19.2020   N         1 RES1   0.0000
  1503 N       19.2349  23.0042  20.5008   N         1 RES1   0.0000
  1504 Zn      20.0277  21.2078  20.8870   Z         1 RES1   0.0000
  1505 C2      31.2466  25.3933  22.7029   C         1 RES1   0.0000
  1506 C5      31.6110  24.2804  21.9810   C         1 RES1   0.0000
  1507 H5      31.2352  24.0952  21.1518   H         1 RES1   0.0000
  1508 H6      32.8329  22.7056  22.0677   H         1 RES1   0.0000
  1509 C1      27.7627  23.9141  21.1187   C         1 RES1   0.0000
  1510 H1      28.2673  23.6851  21.8643   H         1 RES1   0.0000
  1511 C2      27.0109  25.0250  19.4841   C         1 RES1   0.0000
  1512 C5      26.7155  25.9587  18.4438   C         1 RES1   0.0000
  1513 H5      27.1833  26.7571  18.3760   H         1 RES1   0.0000
  1514 C2      27.0109  28.0910  22.4885   C         1 RES1   0.0000
  1515 C5      26.7948  27.0199  23.4312   C         1 RES1   0.0000
  1516 H5      27.2730  26.2235  23.3839   H         1 RES1   0.0000
  1517 C6      25.7350  25.6541  17.5563   C         1 RES1   0.0000
  1518 H6      25.5304  26.2673  16.8880   H         1 RES1   0.0000
  1519 C6      25.8339  27.2428  24.4195   C         1 RES1   0.0000
  1520 H6      25.6500  26.5779  25.0422   H         1 RES1   0.0000
  1521 N       30.3030  26.3907  22.4365   N         1 RES1   0.0000
  1522 N       27.8995  28.1646  21.3977   N         1 RES1   0.0000
  1523 N       30.1087  26.9064  19.2020   N         1 RES1   0.0000
  1524 N       27.9328  25.0648  20.5008   N         1 RES1   0.0000
  1525 Zn      29.0921  26.6496  20.8870   Z         1 RES1   0.0000
  1526 C1      26.1155  33.2680  18.5420   C         1 RES1   0.0000
  1527 H1      25.1902  33.2063  18.4742   H         1 RES1   0.0000
  1528 C2      25.6615  34.0663  23.3229   C         1 RES1   0.0000
  1529 C5      24.7212  34.9065  22.7523   C         1 RES1   0.0000
  1530 H5      24.3626  34.7353  21.9106   H         1 RES1   0.0000
  1531 C1      27.6546  29.3638  20.9159   C         1 RES1   0.0000
  1532 H1      28.1052  29.6864  20.1703   H         1 RES1   0.0000
  1533 C2      26.3167  29.2683  22.5505   C         1 RES1   0.0000
  1534 C5      25.3603  29.4793  23.5909   C         1 RES1   0.0000
  1535 H5      24.9028  30.2836  23.6587   H         1 RES1   0.0000
  1536 C2      23.6614  30.8013  19.5461   C         1 RES1   0.0000
  1537 C5      24.4810  30.0786  18.6035   C         1 RES1   0.0000
  1538 H5      25.4097  30.0945  18.6508   H         1 RES1   0.0000
  1539 C6      25.1339  28.4779  24.4784   C         1 RES1   0.0000
  1540 H6      24.5005  28.6073  25.1467   H         1 RES1   0.0000
  1541 C6      23.8074  29.3579  17.6152   C         1 RES1   0.0000
  1542 H6      24.2913  28.8661  16.9925   H         1 RES1   0.0000
  1543 N       26.7799  32.8021  19.5981   N         1 RES1   0.0000
  1544 N       24.0419  31.6076  20.6369   N         1 RES1   0.0000
  1545 N       26.2362  32.8917  22.8327   N         1 RES1   0.0000
  1546 N       26.7431  30.0865  21.5338   N         1 RES1   0.0000
  1547 Zn      25.9503  31.8829  21.1476   Z         1 RES1   0.0000
  1548 C1      15.6038  25.8917  18.5420   C         1 RES1   0.0000
  1549 H1      16.1199  25.1212  18.4742   H         1 RES1   0.0000
  1550 C2      14.7314  27.6974  19.3317   C         1 RES1   0.0000
  1551 C5      14.3670  28.8104  20.0537   C         1 RES1   0.0000
  1552 H5      14.7428  28.9955  20.8828   H         1 RES1   0.0000
  1553 C6      13.4198  29.6306  19.4988   C         1 RES1   0.0000
  1554 H6      13.1451  30.3852  19.9670   H         1 RES1   0.0000
  1555 C6      12.8497  29.3638  18.2268   C         1 RES1   0.0000
  1556 H6      12.2072  29.9432  17.8831   H         1 RES1   0.0000
  1557 C2      15.1394  25.0993  23.3229   C         1 RES1   0.0000
  1558 C5      14.8819  23.8649  22.7523   C         1 RES1   0.0000
  1559 H5      15.2095  23.6400  21.9106   H         1 RES1   0.0000
  1560 C1      18.2153  29.1767  20.9159   C         1 RES1   0.0000
  1561 H1      17.7107  29.4056  20.1703   H         1 RES1   0.0000
  1562 C2      18.9671  28.0658  22.5505   C         1 RES1   0.0000
  1563 C5      19.2625  27.1320  23.5909   C         1 RES1   0.0000
  1564 H5      18.7947  26.3337  23.6587   H         1 RES1   0.0000
  1565 C2      18.9671  24.9998  19.5461   C         1 RES1   0.0000
  1566 C5      19.1832  26.0709  18.6035   C         1 RES1   0.0000
  1567 H5      18.7050  26.8672  18.6508   H         1 RES1   0.0000
  1568 C6      20.2430  27.4366  24.4784   C         1 RES1   0.0000
  1569 H6      20.4476  26.8234  25.1467   H         1 RES1   0.0000
  1570 C6      20.1441  25.8479  17.6152   C         1 RES1   0.0000
  1571 H6      20.3280  26.5129  16.9925   H         1 RES1   0.0000
  1572 N       15.6750  26.7000  19.5981   N         1 RES1   0.0000
  1573 N       18.0785  24.9261  20.6369   N         1 RES1   0.0000
  1574 N       15.8693  26.1844  22.8327   N         1 RES1   0.0000
  1575 N       18.0452  28.0259  21.5338   N         1 RES1   0.0000
  1576 Zn      16.8859  26.4412  21.1476   Z         1 RES1   0.0000
  1577 C1      18.7303  32.6143  23.4926   C         1 RES1   0.0000
  1578 H1      18.3211  31.7821  23.5604   H         1 RES1   0.0000
  1579 C2      19.8579  34.2727  22.7029   C         1 RES1   0.0000
  1580 C5      20.6395  35.1448  21.9810   C         1 RES1   0.0000
  1581 H5      20.9878  34.9118  21.1518   H         1 RES1   0.0000
  1582 C6      20.8763  36.3751  22.5358   C         1 RES1   0.0000
  1583 H6      21.3924  36.9903  22.0677   H         1 RES1   0.0000
  1584 C6      20.3602  36.7355  23.8079   C         1 RES1   0.0000
  1585 H6      20.5407  37.5816  24.1515   H         1 RES1   0.0000
  1586 C2      17.8119  32.6203  18.7117   C         1 RES1   0.0000
  1587 C5      16.6142  32.2261  19.2824   C         1 RES1   0.0000
  1588 H5      16.5831  31.8299  20.1241   H         1 RES1   0.0000
  1589 C1      22.8810  31.9951  21.1187   C         1 RES1   0.0000
  1590 H1      22.8269  32.5466  21.8643   H         1 RES1   0.0000
  1591 C2      22.2947  30.7887  19.4841   C         1 RES1   0.0000
  1592 C5      21.6338  30.0660  18.4438   C         1 RES1   0.0000
  1593 H5      20.7085  30.0719  18.3760   H         1 RES1   0.0000
  1594 C2      19.6395  29.2557  22.4885   C         1 RES1   0.0000
  1595 C5      20.6752  29.6041  23.4312   C         1 RES1   0.0000
  1596 H5      21.1257  30.4164  23.3839   H         1 RES1   0.0000
  1597 C6      22.3878  29.3691  17.5563   C         1 RES1   0.0000
  1598 H6      21.9591  28.8853  16.8880   H         1 RES1   0.0000
  1599 C6      20.9625  28.6604  24.4195   C         1 RES1   0.0000
  1600 H6      21.6304  28.8336  25.0422   H         1 RES1   0.0000
  1601 N       19.4659  32.9567  22.4365   N         1 RES1   0.0000
  1602 N       19.1314  29.9883  21.3977   N         1 RES1   0.0000
  1603 N       19.1165  32.5307  19.2020   N         1 RES1   0.0000
  1604 N       21.7993  31.5671  20.5008   N         1 RES1   0.0000
  1605 Zn      19.8472  31.7787  20.8870   Z         1 RES1   0.0000
  1606 C1      15.7532  27.1128  23.7964   C         1 RES1   0.0000
  1607 C1      26.1155  19.9953  23.7964   C         1 RES1   0.0000
  1608 C1      27.0983  32.5280  23.7964   C         1 RES1   0.0000
  1609 C1      30.2248  25.9780  18.2383   C         1 RES1   0.0000
  1610 C1      19.8625  33.0954  18.2383   C         1 RES1   0.0000
  1611 C1      18.8797  20.5627  18.2383   C         1 RES1   0.0000
  1612 C2      14.6256  25.4544  24.5861   C         1 RES1   0.0000
  1613 C2      28.1155  19.8480  24.5861   C         1 RES1   0.0000
  1614 C2      17.8625  33.2428  17.4486   C         1 RES1   0.0000
  1615 C2      19.7521  18.7569  17.4486   C         1 RES1   0.0000
  1616 C6      14.1233  22.9916  23.4811   C         1 RES1   0.0000
  1617 C6      30.4995  20.6443  23.4811   C         1 RES1   0.0000
  1618 C6      24.3442  36.0002  23.4811   C         1 RES1   0.0000
  1619 C6      15.4785  32.4464  18.5536   C         1 RES1   0.0000
  1620 C6      21.6338  17.0906  18.5536   C         1 RES1   0.0000
  1621 C2      14.1670  27.4300  18.0686   C         1 RES1   0.0000
  1622 C2      26.6339  18.4630  18.0686   C         1 RES1   0.0000
  1623 C2      17.8119  19.3476  23.9661   C         1 RES1   0.0000
  1624 C2      19.3441  34.6278  23.9661   C         1 RES1   0.0000
  1625 C5      13.2267  28.2702  17.4980   C         1 RES1   0.0000
  1626 C5      26.3764  17.2286  17.4980   C         1 RES1   0.0000
  1627 C5      16.6142  18.9534  24.5367   C         1 RES1   0.0000
  1628 C5      19.6016  35.8621  24.5367   C         1 RES1   0.0000
  1629 N       14.7417  26.2554  17.5784   N         1 RES1   0.0000
  1630 N       27.3638  19.5480  17.5784   N         1 RES1   0.0000
  1631 N       19.1165  19.2580  24.4563   N         1 RES1   0.0000
  1632 N       18.6142  33.5427  24.4563   N         1 RES1   0.0000
  1633 C2      14.6256  38.7271   3.5687   C         1 RES1   0.0000
  1634 C5      13.8440  37.8550   4.2907   C         1 RES1   0.0000
  1635 H5      13.4957  38.0880   5.1198   H         1 RES1   0.0000
  1636 C6      13.6072  36.6247   3.7358   C         1 RES1   0.0000
  1637 H6      13.0911  36.0095   4.2040   H         1 RES1   0.0000
  1638 C6      14.1233  36.2643   2.4638   C         1 RES1   0.0000
  1639 H6      13.9428  35.4182   2.1201   H         1 RES1   0.0000
  1640 C1       8.3680  39.7318   7.7296   C         1 RES1   0.0000
  1641 H1       9.2933  39.7935   7.7974   H         1 RES1   0.0000
  1642 C6       4.0380  39.7099   6.7728   C         1 RES1   0.0000
  1643 C6       3.9840  39.0828   8.0449   C         1 RES1   0.0000
  1644 H6       3.1610  38.8160   8.3885   H         1 RES1   0.0000
  1645 C2       8.8220  38.9334   2.9487   C         1 RES1   0.0000
  1646 C5       9.7623  38.0933   3.5194   C         1 RES1   0.0000
  1647 H5      10.1209  38.2645   4.3611   H         1 RES1   0.0000
  1648 C2      16.6210  39.7570   8.8231   C         1 RES1   0.0000
  1649 C2       8.2576  38.6660   1.6856   C         1 RES1   0.0000
  1650 C6      10.1393  36.9996   2.7906   C         1 RES1   0.0000
  1651 C2      15.1394  38.3720   2.3056   C         1 RES1   0.0000
  1652 C2       6.3174  39.2566   8.2031   C         1 RES1   0.0000
  1653 C5      14.8819  37.1377   1.7350   C         1 RES1   0.0000
  1654 C5       5.1197  38.8624   8.7737   C         1 RES1   0.0000
  1655 N       15.8693  39.4571   1.8154   N         1 RES1   0.0000
  1656 N        7.6220  39.1670   8.6933   N         1 RES1   0.0000
  1657 C2      14.6256  38.7271  19.3317   C         1 RES1   0.0000
  1658 C5      13.8440  37.8550  20.0537   C         1 RES1   0.0000
  1659 H5      13.4957  38.0880  20.8828   H         1 RES1   0.0000
  1660 C6      13.6072  36.6247  19.4988   C         1 RES1   0.0000
  1661 H6      13.0911  36.0095  19.9670   H         1 RES1   0.0000
  1662 C6      14.1233  36.2643  18.2268   C         1 RES1   0.0000
  1663 H6      13.9428  35.4182  17.8831   H         1 RES1   0.0000
  1664 C1       8.3680  39.7318  23.4926   C         1 RES1   0.0000
  1665 H1       9.2933  39.7935  23.5604   H         1 RES1   0.0000
  1666 C6       4.0380  39.7099  22.5358   C         1 RES1   0.0000
  1667 C6       3.9840  39.0828  23.8079   C         1 RES1   0.0000
  1668 H6       3.1610  38.8160  24.1515   H         1 RES1   0.0000
  1669 C2       8.8220  38.9334  18.7117   C         1 RES1   0.0000
  1670 C5       9.7623  38.0933  19.2824   C         1 RES1   0.0000
  1671 H5      10.1209  38.2645  20.1241   H         1 RES1   0.0000
  1672 C2      16.6210  39.7570  24.5861   C         1 RES1   0.0000
  1673 C2       8.2576  38.6660  17.4486   C         1 RES1   0.0000
  1674 C6      10.1393  36.9996  18.5536   C         1 RES1   0.0000
  1675 C2      15.1394  38.3720  18.0686   C         1 RES1   0.0000
  1676 C2       6.3174  39.2566  23.9661   C         1 RES1   0.0000
  1677 C5      14.8819  37.1377  17.4980   C         1 RES1   0.0000
  1678 C5       5.1197  38.8624  24.5367   C         1 RES1   0.0000
  1679 N       15.8693  39.4571  17.5784   N         1 RES1   0.0000
  1680 N        7.6220  39.1670  24.4563   N         1 RES1   0.0000
  1681 H1      13.6957   0.0245   7.9656   H         1 RES1   0.0000
  1682 C6      18.9510   0.1081   8.9902   C         1 RES1   0.0000
  1683 H6      19.8280   1.0020   7.3745   H         1 RES1   0.0000
  1684 C2      14.1670   0.8846  12.8143   C         1 RES1   0.0000
  1685 C5      13.2267   1.7247  12.2436   C         1 RES1   0.0000
  1686 H5      12.8681   1.5535  11.4019   H         1 RES1   0.0000
  1687 C2       8.3634   1.0910  12.1943   C         1 RES1   0.0000
  1688 C5       9.1450   1.9630  11.4723   C         1 RES1   0.0000
  1689 H5       9.4933   1.7301  10.6432   H         1 RES1   0.0000
  1690 C6       9.3818   3.1934  12.0272   C         1 RES1   0.0000
  1691 H6       9.8979   3.8086  11.5590   H         1 RES1   0.0000
  1692 C6       8.8657   3.5537  13.2992   C         1 RES1   0.0000
  1693 H6       9.0462   4.3999  13.6429   H         1 RES1   0.0000
  1694 C2      14.7314   1.1520  14.0774   C         1 RES1   0.0000
  1695 C6      12.8497   2.8184  12.9724   C         1 RES1   0.0000
  1696 C2       7.8496   1.4460  13.4574   C         1 RES1   0.0000
  1697 C5       8.1071   2.6804  14.0280   C         1 RES1   0.0000
  1698 N        7.1197   0.3610  13.9476   N         1 RES1   0.0000
  1699 H1      13.6957   0.0245  23.7286   H         1 RES1   0.0000
  1700 C6      18.9510   0.1081  24.7532   C         1 RES1   0.0000
  1701 H6      19.8280   1.0020  23.1375   H         1 RES1   0.0000
  1702 C2      14.1670   0.8846  28.5773   C         1 RES1   0.0000
  1703 C5      13.2267   1.7247  28.0066   C         1 RES1   0.0000
  1704 H5      12.8681   1.5535  27.1649   H         1 RES1   0.0000
  1705 C2       8.3634   1.0910  27.9573   C         1 RES1   0.0000
  1706 C5       9.1450   1.9630  27.2353   C         1 RES1   0.0000
  1707 H5       9.4933   1.7301  26.4062   H         1 RES1   0.0000
  1708 C6       9.3818   3.1934  27.7902   C         1 RES1   0.0000
  1709 H6       9.8979   3.8086  27.3220   H         1 RES1   0.0000
  1710 C6       8.8657   3.5537  29.0622   C         1 RES1   0.0000
  1711 H6       9.0462   4.3999  29.4059   H         1 RES1   0.0000
  1712 C2      14.7314   1.1520  29.8404   C         1 RES1   0.0000
  1713 C6      12.8497   2.8184  28.7354   C         1 RES1   0.0000
  1714 C2       7.8496   1.4460  29.2204   C         1 RES1   0.0000
  1715 C5       8.1071   2.6804  29.7910   C         1 RES1   0.0000
  1716 N        7.1197   0.3610  29.7106   N         1 RES1   0.0000
  1717 H1       4.6679   8.0359   7.9656   H         1 RES1   0.0000
  1718 C5       2.3495   4.6733   9.5450   C         1 RES1   0.0000
  1719 H5       2.0012   4.9062  10.3742   H         1 RES1   0.0000
  1720 C6       2.1127   3.4429   8.9902   C         1 RES1   0.0000
  1721 H6       1.5966   2.8277   9.4583   H         1 RES1   0.0000
  1722 H6       2.4483   2.2364   7.3745   H         1 RES1   0.0000
  1723 C2       5.1771   7.1977  12.8143   C         1 RES1   0.0000
  1724 C5       6.3748   7.5919  12.2436   C         1 RES1   0.0000
  1725 H5       6.4059   7.9881  11.4019   H         1 RES1   0.0000
  1726 C1       0.1080   7.8229  10.4073   C         1 RES1   0.0000
  1727 H1       0.1621   7.2714   9.6617   H         1 RES1   0.0000
  1728 C2       0.6943   9.0294  12.0419   C         1 RES1   0.0000
  1729 C5       1.3552   9.7521  13.0822   C         1 RES1   0.0000
  1730 H5       2.2805   9.7461  13.1500   H         1 RES1   0.0000
  1731 C2       3.3495  10.5624   9.0375   C         1 RES1   0.0000
  1732 C5       2.3138  10.2140   8.0948   C         1 RES1   0.0000
  1733 H5       1.8633   9.4017   8.1421   H         1 RES1   0.0000
  1734 C6       0.6012  10.4489  13.9697   C         1 RES1   0.0000
  1735 H6       1.0299  10.9327  14.6380   H         1 RES1   0.0000
  1736 C6       2.0265  11.1577   7.1065   C         1 RES1   0.0000
  1737 H6       1.3586  10.9844   6.4838   H         1 RES1   0.0000
  1738 N        3.5231   6.8613   9.0895   N         1 RES1   0.0000
  1739 N        3.8576   9.8297  10.1283   N         1 RES1   0.0000
  1740 N        3.8725   7.2873  12.3240   N         1 RES1   0.0000
  1741 N        1.1897   8.2509  11.0252   N         1 RES1   0.0000
  1742 Zn       3.1418   8.0393  10.6390   Z         1 RES1   0.0000
  1743 C1      -3.1265   6.5500  12.9840   C         1 RES1   0.0000
  1744 H1      -2.2012   6.6118  13.0518   H         1 RES1   0.0000
  1745 H5      -1.3736   5.0827   9.6154   H         1 RES1   0.0000
  1746 C1      -4.6656  10.4542  10.6101   C         1 RES1   0.0000
  1747 H1      -5.1162  10.1317  11.3557   H         1 RES1   0.0000
  1748 C2      -3.3277  10.5498   8.9755   C         1 RES1   0.0000
  1749 C5      -2.3713  10.3387   7.9351   C         1 RES1   0.0000
  1750 H5      -1.9138   9.5344   7.8673   H         1 RES1   0.0000
  1751 C2      -0.6724   9.0168  11.9799   C         1 RES1   0.0000
  1752 C5      -1.4920   9.7395  12.9225   C         1 RES1   0.0000
  1753 H5      -2.4207   9.7235  12.8752   H         1 RES1   0.0000
  1754 C6      -2.1449  11.3402   7.0476   C         1 RES1   0.0000
  1755 H6      -1.5115  11.2107   6.3793   H         1 RES1   0.0000
  1756 C6      -0.8184  10.4602  13.9108   C         1 RES1   0.0000
  1757 H6      -1.3023  10.9519  14.5335   H         1 RES1   0.0000
  1758 N       -3.7909   7.0159  11.9279   N         1 RES1   0.0000
  1759 N       -1.0529   8.2105  10.8891   N         1 RES1   0.0000
  1760 N       -3.7541   9.7315   9.9922   N         1 RES1   0.0000
  1761 Zn      -2.9613   7.9351  10.3784   Z         1 RES1   0.0000
  1762 C1       7.3852  13.9263  12.9840   C         1 RES1   0.0000
  1763 H1       6.8691  14.6968  13.0518   H         1 RES1   0.0000
  1764 C2       8.2576  12.1206  12.1943   C         1 RES1   0.0000
  1765 C5       8.6220  11.0077  11.4723   C         1 RES1   0.0000
  1766 H5       8.2462  10.8225  10.6432   H         1 RES1   0.0000
  1767 C6       9.5692  10.1874  12.0272   C         1 RES1   0.0000
  1768 H6       9.8439   9.4329  11.5590   H         1 RES1   0.0000
  1769 C6      10.1393  10.4542  13.2992   C         1 RES1   0.0000
  1770 H6      10.7818   9.8749  13.6429   H         1 RES1   0.0000
  1771 H5       7.7795  16.1781   9.6154   H         1 RES1   0.0000
  1772 C1       4.7737  10.6413  10.6101   C         1 RES1   0.0000
  1773 H1       5.2783  10.4124  11.3557   H         1 RES1   0.0000
  1774 C2       4.0219  11.7523   8.9755   C         1 RES1   0.0000
  1775 C5       3.7265  12.6860   7.9351   C         1 RES1   0.0000
  1776 H5       4.1943  13.4844   7.8673   H         1 RES1   0.0000
  1777 C2       4.0219  14.8183  11.9799   C         1 RES1   0.0000
  1778 C5       3.8058  13.7472  12.9225   C         1 RES1   0.0000
  1779 H5       4.2840  12.9508  12.8752   H         1 RES1   0.0000
  1780 C6       2.7460  12.3814   7.0476   C         1 RES1   0.0000
  1781 H6       2.5414  12.9946   6.3793   H         1 RES1   0.0000
  1782 C6       2.8449  13.9701  13.9108   C         1 RES1   0.0000
  1783 H6       2.6610  13.3052  14.5335   H         1 RES1   0.0000
  1784 N        7.3140  13.1180  11.9279   N         1 RES1   0.0000
  1785 N        4.9105  14.8919  10.8891   N         1 RES1   0.0000
  1786 N        4.9438  11.7921   9.9922   N         1 RES1   0.0000
  1787 Zn       6.1031  13.3769  10.3784   Z         1 RES1   0.0000
  1788 H1       2.2012  19.9336   7.9656   H         1 RES1   0.0000
  1789 C5       6.2725  19.6071   9.5450   C         1 RES1   0.0000
  1790 H5       6.2450  19.1890  10.3742   H         1 RES1   0.0000
  1791 C6       7.4565  20.0172   8.9902   C         1 RES1   0.0000
  1792 H6       8.2473  19.8778   9.4583   H         1 RES1   0.0000
  1793 H6       8.3335  20.9111   7.3745   H         1 RES1   0.0000
  1794 C2       2.6725  20.7936  12.8143   C         1 RES1   0.0000
  1795 C5       1.7322  21.6338  12.2436   C         1 RES1   0.0000
  1796 H5       1.3736  21.4626  11.4019   H         1 RES1   0.0000
  1797 C1       4.6656  16.0911  10.4073   C         1 RES1   0.0000
  1798 H1       5.1162  16.4136   9.6617   H         1 RES1   0.0000
  1799 C2       3.3277  15.9956  12.0419   C         1 RES1   0.0000
  1800 C5       2.3713  16.2066  13.0822   C         1 RES1   0.0000
  1801 H5       1.9138  17.0109  13.1500   H         1 RES1   0.0000
  1802 C2       0.6724  17.5286   9.0375   C         1 RES1   0.0000
  1803 C5       1.4920  16.8059   8.0948   C         1 RES1   0.0000
  1804 H5       2.4207  16.8218   8.1421   H         1 RES1   0.0000
  1805 C6       2.1449  15.2052  13.9697   C         1 RES1   0.0000
  1806 H6       1.5115  15.3346  14.6380   H         1 RES1   0.0000
  1807 C6       0.8184  16.0851   7.1065   C         1 RES1   0.0000
  1808 H6       1.3023  15.5934   6.4838   H         1 RES1   0.0000
  1809 N        3.7909  19.5294   9.0895   N         1 RES1   0.0000
  1810 N        1.0529  18.3349  10.1283   N         1 RES1   0.0000
  1811 N        3.2472  19.6190  12.3240   N         1 RES1   0.0000
  1812 N        3.7541  16.8138  11.0252   N         1 RES1   0.0000
  1813 Zn       2.9613  18.6102  10.6390   Z         1 RES1   0.0000
  1814 C5      -8.6220  15.5377   9.5450   C         1 RES1   0.0000
  1815 H5      -8.2462  15.7228  10.3742   H         1 RES1   0.0000
  1816 H6      -9.8439  17.1125   9.4583   H         1 RES1   0.0000
  1817 C1      -4.7737  15.9040  10.4073   C         1 RES1   0.0000
  1818 H1      -5.2783  16.1329   9.6617   H         1 RES1   0.0000
  1819 C2      -4.0219  14.7931  12.0419   C         1 RES1   0.0000
  1820 C5      -3.7265  13.8593  13.0822   C         1 RES1   0.0000
  1821 H5      -4.1943  13.0610  13.1500   H         1 RES1   0.0000
  1822 C2      -4.0219  11.7271   9.0375   C         1 RES1   0.0000
  1823 C5      -3.8058  12.7982   8.0948   C         1 RES1   0.0000
  1824 H5      -4.2840  13.5945   8.1421   H         1 RES1   0.0000
  1825 C6      -2.7460  14.1639  13.9697   C         1 RES1   0.0000
  1826 H6      -2.5414  13.5507  14.6380   H         1 RES1   0.0000
  1827 C6      -2.8449  12.5752   7.1065   C         1 RES1   0.0000
  1828 H6      -2.6610  13.2401   6.4838   H         1 RES1   0.0000
  1829 N       -7.3140  13.4273   9.0895   N         1 RES1   0.0000
  1830 N       -4.9105  11.6534  10.1283   N         1 RES1   0.0000
  1831 N       -7.1197  12.9116  12.3240   N         1 RES1   0.0000
  1832 N       -4.9438  14.7532  11.0252   N         1 RES1   0.0000
  1833 Zn      -6.1031  13.1685  10.6390   Z         1 RES1   0.0000
  1834 C1      -4.2587  19.3416  12.9840   C         1 RES1   0.0000
  1835 H1      -4.6679  18.5094  13.0518   H         1 RES1   0.0000
  1836 C2      -3.1311  21.0000  12.1943   C         1 RES1   0.0000
  1837 C5      -2.3495  21.8720  11.4723   C         1 RES1   0.0000
  1838 H5      -2.0012  21.6391  10.6432   H         1 RES1   0.0000
  1839 C6      -2.1127  23.1024  12.0272   C         1 RES1   0.0000
  1840 H6      -1.5966  23.7176  11.5590   H         1 RES1   0.0000
  1841 C6      -2.6288  23.4628  13.2992   C         1 RES1   0.0000
  1842 H6      -2.4483  24.3089  13.6429   H         1 RES1   0.0000
  1843 H5      -6.4059  18.5572   9.6154   H         1 RES1   0.0000
  1844 C1      -0.1080  18.7224  10.6101   C         1 RES1   0.0000
  1845 H1      -0.1621  19.2739  11.3557   H         1 RES1   0.0000
  1846 C2      -0.6943  17.5159   8.9755   C         1 RES1   0.0000
  1847 C5      -1.3552  16.7932   7.9351   C         1 RES1   0.0000
  1848 H5      -2.2805  16.7992   7.8673   H         1 RES1   0.0000
  1849 C2      -3.3495  15.9829  11.9799   C         1 RES1   0.0000
  1850 C5      -2.3138  16.3314  12.9225   C         1 RES1   0.0000
  1851 H5      -1.8633  17.1436  12.8752   H         1 RES1   0.0000
  1852 C6      -0.6012  16.0964   7.0476   C         1 RES1   0.0000
  1853 H6      -1.0299  15.6126   6.3793   H         1 RES1   0.0000
  1854 C6      -2.0265  15.3877  13.9108   C         1 RES1   0.0000
  1855 H6      -1.3586  15.5609  14.5335   H         1 RES1   0.0000
  1856 N       -3.5231  19.6840  11.9279   N         1 RES1   0.0000
  1857 N       -3.8576  16.7156  10.8891   N         1 RES1   0.0000
  1858 N       -1.1897  18.2944   9.9922   N         1 RES1   0.0000
  1859 Zn      -3.1418  18.5060  10.3784   Z         1 RES1   0.0000
  1860 C1      -7.2358  13.8401  13.2877   C         1 RES1   0.0000
  1861 C1       3.1265   6.7226  13.2877   C         1 RES1   0.0000
  1862 C1       4.1093  19.2553  13.2877   C         1 RES1   0.0000
  1863 C2       5.1265   6.5753  14.0774   C         1 RES1   0.0000
  1864 C2       3.2369  21.0611  14.0774   C         1 RES1   0.0000
  1865 C6       7.5105   7.3716  12.9724   C         1 RES1   0.0000
  1866 C6       1.3552  22.7275  12.9724   C         1 RES1   0.0000
  1867 C2       8.8220  12.3880  13.4574   C         1 RES1   0.0000
  1868 C2      -3.6449  21.3551  13.4574   C         1 RES1   0.0000
  1869 C5       9.7623  11.5479  14.0280   C         1 RES1   0.0000
  1870 C5      -3.3874  22.5894  14.0280   C         1 RES1   0.0000
  1871 N        8.2473  13.5627  13.9476   N         1 RES1   0.0000
  1872 N       -4.3748  20.2700  13.9476   N         1 RES1   0.0000
  1873 H1       4.6679   8.0359  23.7286   H         1 RES1   0.0000
  1874 C5       2.3495   4.6733  25.3080   C         1 RES1   0.0000
  1875 H5       2.0012   4.9062  26.1372   H         1 RES1   0.0000
  1876 C6       2.1127   3.4429  24.7532   C         1 RES1   0.0000
  1877 H6       1.5966   2.8277  25.2213   H         1 RES1   0.0000
  1878 H6       2.4483   2.2364  23.1375   H         1 RES1   0.0000
  1879 C2       5.1771   7.1977  28.5773   C         1 RES1   0.0000
  1880 C5       6.3748   7.5919  28.0066   C         1 RES1   0.0000
  1881 H5       6.4059   7.9881  27.1649   H         1 RES1   0.0000
  1882 C1       0.1080   7.8229  26.1703   C         1 RES1   0.0000
  1883 H1       0.1621   7.2714  25.4247   H         1 RES1   0.0000
  1884 C2       0.6943   9.0294  27.8049   C         1 RES1   0.0000
  1885 C5       1.3552   9.7521  28.8452   C         1 RES1   0.0000
  1886 H5       2.2805   9.7461  28.9130   H         1 RES1   0.0000
  1887 C2       3.3495  10.5624  24.8005   C         1 RES1   0.0000
  1888 C5       2.3138  10.2140  23.8578   C         1 RES1   0.0000
  1889 H5       1.8633   9.4017  23.9051   H         1 RES1   0.0000
  1890 C6       0.6012  10.4489  29.7327   C         1 RES1   0.0000
  1891 H6       1.0299  10.9327  30.4010   H         1 RES1   0.0000
  1892 C6       2.0265  11.1577  22.8695   C         1 RES1   0.0000
  1893 H6       1.3586  10.9844  22.2468   H         1 RES1   0.0000
  1894 N        3.5231   6.8613  24.8525   N         1 RES1   0.0000
  1895 N        3.8576   9.8297  25.8913   N         1 RES1   0.0000
  1896 N        3.8725   7.2873  28.0870   N         1 RES1   0.0000
  1897 N        1.1897   8.2509  26.7882   N         1 RES1   0.0000
  1898 Zn       3.1418   8.0393  26.4020   Z         1 RES1   0.0000
  1899 C1      -3.1265   6.5500  28.7470   C         1 RES1   0.0000
  1900 H1      -2.2012   6.6118  28.8148   H         1 RES1   0.0000
  1901 H5      -1.3736   5.0827  25.3784   H         1 RES1   0.0000
  1902 C1      -4.6656  10.4542  26.3731   C         1 RES1   0.0000
  1903 H1      -5.1162  10.1317  27.1187   H         1 RES1   0.0000
  1904 C2      -3.3277  10.5498  24.7385   C         1 RES1   0.0000
  1905 C5      -2.3713  10.3387  23.6981   C         1 RES1   0.0000
  1906 H5      -1.9138   9.5344  23.6303   H         1 RES1   0.0000
  1907 C2      -0.6724   9.0168  27.7429   C         1 RES1   0.0000
  1908 C5      -1.4920   9.7395  28.6855   C         1 RES1   0.0000
  1909 H5      -2.4207   9.7235  28.6382   H         1 RES1   0.0000
  1910 C6      -2.1449  11.3402  22.8106   C         1 RES1   0.0000
  1911 H6      -1.5115  11.2107  22.1423   H         1 RES1   0.0000
  1912 C6      -0.8184  10.4602  29.6738   C         1 RES1   0.0000
  1913 H6      -1.3023  10.9519  30.2965   H         1 RES1   0.0000
  1914 N       -3.7909   7.0159  27.6909   N         1 RES1   0.0000
  1915 N       -1.0529   8.2105  26.6521   N         1 RES1   0.0000
  1916 N       -3.7541   9.7315  25.7552   N         1 RES1   0.0000
  1917 Zn      -2.9613   7.9351  26.1414   Z         1 RES1   0.0000
  1918 C1       7.3852  13.9263  28.7470   C         1 RES1   0.0000
  1919 H1       6.8691  14.6968  28.8148   H         1 RES1   0.0000
  1920 C2       8.2576  12.1206  27.9573   C         1 RES1   0.0000
  1921 C5       8.6220  11.0077  27.2353   C         1 RES1   0.0000
  1922 H5       8.2462  10.8225  26.4062   H         1 RES1   0.0000
  1923 C6       9.5692  10.1874  27.7902   C         1 RES1   0.0000
  1924 H6       9.8439   9.4329  27.3220   H         1 RES1   0.0000
  1925 C6      10.1393  10.4542  29.0622   C         1 RES1   0.0000
  1926 H6      10.7818   9.8749  29.4059   H         1 RES1   0.0000
  1927 H5       7.7795  16.1781  25.3784   H         1 RES1   0.0000
  1928 C1       4.7737  10.6413  26.3731   C         1 RES1   0.0000
  1929 H1       5.2783  10.4124  27.1187   H         1 RES1   0.0000
  1930 C2       4.0219  11.7523  24.7385   C         1 RES1   0.0000
  1931 C5       3.7265  12.6860  23.6981   C         1 RES1   0.0000
  1932 H5       4.1943  13.4844  23.6303   H         1 RES1   0.0000
  1933 C2       4.0219  14.8183  27.7429   C         1 RES1   0.0000
  1934 C5       3.8058  13.7472  28.6855   C         1 RES1   0.0000
  1935 H5       4.2840  12.9508  28.6382   H         1 RES1   0.0000
  1936 C6       2.7460  12.3814  22.8106   C         1 RES1   0.0000
  1937 H6       2.5414  12.9946  22.1423   H         1 RES1   0.0000
  1938 C6       2.8449  13.9701  29.6738   C         1 RES1   0.0000
  1939 H6       2.6610  13.3052  30.2965   H         1 RES1   0.0000
  1940 N        7.3140  13.1180  27.6909   N         1 RES1   0.0000
  1941 N        4.9105  14.8919  26.6521   N         1 RES1   0.0000
  1942 N        4.9438  11.7921  25.7552   N         1 RES1   0.0000
  1943 Zn       6.1031  13.3769  26.1414   Z         1 RES1   0.0000
  1944 H1       2.2012  19.9336  23.7286   H         1 RES1   0.0000
  1945 C5       6.2725  19.6071  25.3080   C         1 RES1   0.0000
  1946 H5       6.2450  19.1890  26.1372   H         1 RES1   0.0000
  1947 C6       7.4565  20.0172  24.7532   C         1 RES1   0.0000
  1948 H6       8.2473  19.8778  25.2213   H         1 RES1   0.0000
  1949 H6       8.3335  20.9111  23.1375   H         1 RES1   0.0000
  1950 C2       2.6725  20.7936  28.5773   C         1 RES1   0.0000
  1951 C5       1.7322  21.6338  28.0066   C         1 RES1   0.0000
  1952 H5       1.3736  21.4626  27.1649   H         1 RES1   0.0000
  1953 C1       4.6656  16.0911  26.1703   C         1 RES1   0.0000
  1954 H1       5.1162  16.4136  25.4247   H         1 RES1   0.0000
  1955 C2       3.3277  15.9956  27.8049   C         1 RES1   0.0000
  1956 C5       2.3713  16.2066  28.8452   C         1 RES1   0.0000
  1957 H5       1.9138  17.0109  28.9130   H         1 RES1   0.0000
  1958 C2       0.6724  17.5286  24.8005   C         1 RES1   0.0000
  1959 C5       1.4920  16.8059  23.8578   C         1 RES1   0.0000
  1960 H5       2.4207  16.8218  23.9051   H         1 RES1   0.0000
  1961 C6       2.1449  15.2052  29.7327   C         1 RES1   0.0000
  1962 H6       1.5115  15.3346  30.4010   H         1 RES1   0.0000
  1963 C6       0.8184  16.0851  22.8695   C         1 RES1   0.0000
  1964 H6       1.3023  15.5934  22.2468   H         1 RES1   0.0000
  1965 N        3.7909  19.5294  24.8525   N         1 RES1   0.0000
  1966 N        1.0529  18.3349  25.8913   N         1 RES1   0.0000
  1967 N        3.2472  19.6190  28.0870   N         1 RES1   0.0000
  1968 N        3.7541  16.8138  26.7882   N         1 RES1   0.0000
  1969 Zn       2.9613  18.6102  26.4020   Z         1 RES1   0.0000
  1970 C5      -8.6220  15.5377  25.3080   C         1 RES1   0.0000
  1971 H5      -8.2462  15.7228  26.1372   H         1 RES1   0.0000
  1972 H6      -9.8439  17.1125  25.2213   H         1 RES1   0.0000
  1973 C1      -4.7737  15.9040  26.1703   C         1 RES1   0.0000
  1974 H1      -5.2783  16.1329  25.4247   H         1 RES1   0.0000
  1975 C2      -4.0219  14.7931  27.8049   C         1 RES1   0.0000
  1976 C5      -3.7265  13.8593  28.8452   C         1 RES1   0.0000
  1977 H5      -4.1943  13.0610  28.9130   H         1 RES1   0.0000
  1978 C2      -4.0219  11.7271  24.8005   C         1 RES1   0.0000
  1979 C5      -3.8058  12.7982  23.8578   C         1 RES1   0.0000
  1980 H5      -4.2840  13.5945  23.9051   H         1 RES1   0.0000
  1981 C6      -2.7460  14.1639  29.7327   C         1 RES1   0.0000
  1982 H6      -2.5414  13.5507  30.4010   H         1 RES1   0.0000
  1983 C6      -2.8449  12.5752  22.8695   C         1 RES1   0.0000
  1984 H6      -2.6610  13.2401  22.2468   H         1 RES1   0.0000
  1985 N       -7.3140  13.4273  24.8525   N         1 RES1   0.0000
  1986 N       -4.9105  11.6534  25.8913   N         1 RES1   0.0000
  1987 N       -7.1197  12.9116  28.0870   N         1 RES1   0.0000
  1988 N       -4.9438  14.7532  26.7882   N         1 RES1   0.0000
  1989 Zn      -6.1031  13.1685  26.4020   Z         1 RES1   0.0000
  1990 C1      -4.2587  19.3416  28.7470   C         1 RES1   0.0000
  1991 H1      -4.6679  18.5094  28.8148   H         1 RES1   0.0000
  1992 C2      -3.1311  21.0000  27.9573   C         1 RES1   0.0000
  1993 C5      -2.3495  21.8720  27.2353   C         1 RES1   0.0000
  1994 H5      -2.0012  21.6391  26.4062   H         1 RES1   0.0000
  1995 C6      -2.1127  23.1024  27.7902   C         1 RES1   0.0000
  1996 H6      -1.5966  23.7176  27.3220   H         1 RES1   0.0000
  1997 C6      -2.6288  23.4628  29.0622   C         1 RES1   0.0000
  1998 H6      -2.4483  24.3089  29.4059   H         1 RES1   0.0000
  1999 H5      -6.4059  18.5572  25.3784   H         1 RES1   0.0000
  2000 C1      -0.1080  18.7224  26.3731   C         1 RES1   0.0000
  2001 H1      -0.1621  19.2739  27.1187   H         1 RES1   0.0000
  2002 C2      -0.6943  17.5159  24.7385   C         1 RES1   0.0000
  2003 C5      -1.3552  16.7932  23.6981   C         1 RES1   0.0000
  2004 H5      -2.2805  16.7992  23.6303   H         1 RES1   0.0000
  2005 C2      -3.3495  15.9829  27.7429   C         1 RES1   0.0000
  2006 C5      -2.3138  16.3314  28.6855   C         1 RES1   0.0000
  2007 H5      -1.8633  17.1436  28.6382   H         1 RES1   0.0000
  2008 C6      -0.6012  16.0964  22.8106   C         1 RES1   0.0000
  2009 H6      -1.0299  15.6126  22.1423   H         1 RES1   0.0000
  2010 C6      -2.0265  15.3877  29.6738   C         1 RES1   0.0000
  2011 H6      -1.3586  15.5609  30.2965   H         1 RES1   0.0000
  2012 N       -3.5231  19.6840  27.6909   N         1 RES1   0.0000
  2013 N       -3.8576  16.7156  26.6521   N         1 RES1   0.0000
  2014 N       -1.1897  18.2944  25.7552   N         1 RES1   0.0000
  2015 Zn      -3.1418  18.5060  26.1414   Z         1 RES1   0.0000
  2016 C1      -7.2358  13.8401  29.0507   C         1 RES1   0.0000
  2017 C1       3.1265   6.7226  29.0507   C         1 RES1   0.0000
  2018 C1       4.1093  19.2553  29.0507   C         1 RES1   0.0000
  2019 C2       5.1265   6.5753  29.8404   C         1 RES1   0.0000
  2020 C2       3.2369  21.0611  29.8404   C         1 RES1   0.0000
  2021 C6       7.5105   7.3716  28.7354   C         1 RES1   0.0000
  2022 C6       1.3552  22.7275  28.7354   C         1 RES1   0.0000
  2023 C2       8.8220  12.3880  29.2204   C         1 RES1   0.0000
  2024 C2      -3.6449  21.3551  29.2204   C         1 RES1   0.0000
  2025 C5       9.7623  11.5479  29.7910   C         1 RES1   0.0000
  2026 C5      -3.3874  22.5894  29.7910   C         1 RES1   0.0000
  2027 N        8.2473  13.5627  29.7106   N         1 RES1   0.0000
  2028 N       -4.3748  20.2700  29.7106   N         1 RES1   0.0000
  2029 H1      -6.8266  27.9450   7.9656   H         1 RES1   0.0000
  2030 C5      -9.1450  24.5823   9.5450   C         1 RES1   0.0000
  2031 H5      -9.4933  24.8153  10.3742   H         1 RES1   0.0000
  2032 C6      -9.3818  23.3520   8.9902   C         1 RES1   0.0000
  2033 H6      -9.8979  22.7368   9.4583   H         1 RES1   0.0000
  2034 H6      -9.0462  22.1455   7.3745   H         1 RES1   0.0000
  2035 C2      -6.3174  27.1068  12.8143   C         1 RES1   0.0000
  2036 C5      -5.1197  27.5010  12.2436   C         1 RES1   0.0000
  2037 H5      -5.0886  27.8972  11.4019   H         1 RES1   0.0000
  2038 C1     -11.3865  27.7319  10.4073   C         1 RES1   0.0000
  2039 H1     -11.3324  27.1805   9.6617   H         1 RES1   0.0000
  2040 C2     -10.8002  28.9384  12.0419   C         1 RES1   0.0000
  2041 C5     -10.1393  29.6611  13.0822   C         1 RES1   0.0000
  2042 H5      -9.2140  29.6552  13.1500   H         1 RES1   0.0000
  2043 C2      -8.1450  30.4714   9.0375   C         1 RES1   0.0000
  2044 C5      -9.1807  30.1230   8.0948   C         1 RES1   0.0000
  2045 H5      -9.6312  29.3107   8.1421   H         1 RES1   0.0000
  2046 C6     -10.8933  30.3580  13.9697   C         1 RES1   0.0000
  2047 H6     -10.4646  30.8417  14.6380   H         1 RES1   0.0000
  2048 C6      -9.4680  31.0667   7.1065   C         1 RES1   0.0000
  2049 H6     -10.1359  30.8935   6.4838   H         1 RES1   0.0000
  2050 N       -7.9714  26.7703   9.0895   N         1 RES1   0.0000
  2051 N       -7.6369  29.7388  10.1283   N         1 RES1   0.0000
  2052 N       -7.6220  27.1964  12.3240   N         1 RES1   0.0000
  2053 N      -10.3048  28.1600  11.0252   N         1 RES1   0.0000
  2054 Zn      -8.3527  27.9484  10.6390   Z         1 RES1   0.0000
  2055 C1     -14.6210  26.4591  12.9840   C         1 RES1   0.0000
  2056 H1     -13.6957  26.5208  13.0518   H         1 RES1   0.0000
  2057 H5     -12.8681  24.9918   9.6154   H         1 RES1   0.0000
  2058 C1     -16.1601  30.3633  10.6101   C         1 RES1   0.0000
  2059 H1     -16.6107  30.0407  11.3557   H         1 RES1   0.0000
  2060 C2     -14.8222  30.4588   8.9755   C         1 RES1   0.0000
  2061 C5     -13.8658  30.2478   7.9351   C         1 RES1   0.0000
  2062 H5     -13.4083  29.4435   7.8673   H         1 RES1   0.0000
  2063 C2     -12.1669  28.9258  11.9799   C         1 RES1   0.0000
  2064 C5     -12.9865  29.6485  12.9225   C         1 RES1   0.0000
  2065 H5     -13.9152  29.6326  12.8752   H         1 RES1   0.0000
  2066 C6     -13.6394  31.2492   7.0476   C         1 RES1   0.0000
  2067 H6     -13.0060  31.1198   6.3793   H         1 RES1   0.0000
  2068 C6     -12.3129  30.3692  13.9108   C         1 RES1   0.0000
  2069 H6     -12.7968  30.8610  14.5335   H         1 RES1   0.0000
  2070 N      -15.2854  26.9250  11.9279   N         1 RES1   0.0000
  2071 N      -12.5474  28.1195  10.8891   N         1 RES1   0.0000
  2072 N      -15.2486  29.6406   9.9922   N         1 RES1   0.0000
  2073 Zn     -14.4558  27.8442  10.3784   Z         1 RES1   0.0000
  2074 C1      -4.1093  33.8354  12.9840   C         1 RES1   0.0000
  2075 H1      -4.6254  34.6059  13.0518   H         1 RES1   0.0000
  2076 C2      -3.2369  32.0297  12.1943   C         1 RES1   0.0000
  2077 C5      -2.8725  30.9167  11.4723   C         1 RES1   0.0000
  2078 H5      -3.2483  30.7316  10.6432   H         1 RES1   0.0000
  2079 C6      -1.9253  30.0965  12.0272   C         1 RES1   0.0000
  2080 H6      -1.6506  29.3419  11.5590   H         1 RES1   0.0000
  2081 C6      -1.3552  30.3633  13.2992   C         1 RES1   0.0000
  2082 H6      -0.7127  29.7839  13.6429   H         1 RES1   0.0000
  2083 H5      -3.7150  36.0871   9.6154   H         1 RES1   0.0000
  2084 C1      -6.7208  30.5504  10.6101   C         1 RES1   0.0000
  2085 H1      -6.2162  30.3215  11.3557   H         1 RES1   0.0000
  2086 C2      -7.4726  31.6613   8.9755   C         1 RES1   0.0000
  2087 C5      -7.7680  32.5951   7.9351   C         1 RES1   0.0000
  2088 H5      -7.3002  33.3934   7.8673   H         1 RES1   0.0000
  2089 C2      -7.4726  34.7273  11.9799   C         1 RES1   0.0000
  2090 C5      -7.6887  33.6562  12.9225   C         1 RES1   0.0000
  2091 H5      -7.2105  32.8599  12.8752   H         1 RES1   0.0000
  2092 C6      -8.7485  32.2905   7.0476   C         1 RES1   0.0000
  2093 H6      -8.9531  32.9037   6.3793   H         1 RES1   0.0000
  2094 C6      -8.6496  33.8792  13.9108   C         1 RES1   0.0000
  2095 H6      -8.8335  33.2142  14.5335   H         1 RES1   0.0000
  2096 N       -4.1805  33.0271  11.9279   N         1 RES1   0.0000
  2097 N       -6.5840  34.8010  10.8891   N         1 RES1   0.0000
  2098 N       -6.5507  31.7012   9.9922   N         1 RES1   0.0000
  2099 Zn      -5.3914  33.2859  10.3784   Z         1 RES1   0.0000
  2100 C5      -5.2220  39.5161   9.5450   C         1 RES1   0.0000
  2101 H5      -5.2495  39.0980  10.3742   H         1 RES1   0.0000
  2102 H6      -3.2472  39.7869   9.4583   H         1 RES1   0.0000
  2103 C1      -6.8289  36.0002  10.4073   C         1 RES1   0.0000
  2104 H1      -6.3783  36.3227   9.6617   H         1 RES1   0.0000
  2105 C2      -8.1668  35.9046  12.0419   C         1 RES1   0.0000
  2106 C5      -9.1232  36.1157  13.0822   C         1 RES1   0.0000
  2107 H5      -9.5807  36.9200  13.1500   H         1 RES1   0.0000
  2108 C2     -10.8221  37.4376   9.0375   C         1 RES1   0.0000
  2109 C5     -10.0025  36.7149   8.0948   C         1 RES1   0.0000
  2110 H5      -9.0738  36.7308   8.1421   H         1 RES1   0.0000
  2111 C6      -9.3496  35.1142  13.9697   C         1 RES1   0.0000
  2112 H6      -9.9830  35.2436  14.6380   H         1 RES1   0.0000
  2113 C6     -10.6761  35.9942   7.1065   C         1 RES1   0.0000
  2114 H6     -10.1922  35.5025   6.4838   H         1 RES1   0.0000
  2115 N       -7.7036  39.4385   9.0895   N         1 RES1   0.0000
  2116 N      -10.4416  38.2439  10.1283   N         1 RES1   0.0000
  2117 N       -8.2473  39.5281  12.3240   N         1 RES1   0.0000
  2118 N       -7.7404  36.7229  11.0252   N         1 RES1   0.0000
  2119 Zn      -8.5332  38.5193  10.6390   Z         1 RES1   0.0000
  2120 C5     -20.1165  35.4467   9.5450   C         1 RES1   0.0000
  2121 H5     -19.7407  35.6319  10.3742   H         1 RES1   0.0000
  2122 H6     -21.3384  37.0215   9.4583   H         1 RES1   0.0000
  2123 C1     -16.2682  35.8130  10.4073   C         1 RES1   0.0000
  2124 H1     -16.7728  36.0420   9.6617   H         1 RES1   0.0000
  2125 C2     -15.5164  34.7021  12.0419   C         1 RES1   0.0000
  2126 C5     -15.2210  33.7684  13.0822   C         1 RES1   0.0000
  2127 H5     -15.6888  32.9700  13.1500   H         1 RES1   0.0000
  2128 C2     -15.5164  31.6361   9.0375   C         1 RES1   0.0000
  2129 C5     -15.3003  32.7072   8.0948   C         1 RES1   0.0000
  2130 H5     -15.7785  33.5036   8.1421   H         1 RES1   0.0000
  2131 C6     -14.2405  34.0730  13.9697   C         1 RES1   0.0000
  2132 H6     -14.0359  33.4598  14.6380   H         1 RES1   0.0000
  2133 C6     -14.3394  32.4842   7.1065   C         1 RES1   0.0000
  2134 H6     -14.1555  33.1492   6.4838   H         1 RES1   0.0000
  2135 N      -18.8085  33.3363   9.0895   N         1 RES1   0.0000
  2136 N      -16.4050  31.5625  10.1283   N         1 RES1   0.0000
  2137 N      -18.6142  32.8207  12.3240   N         1 RES1   0.0000
  2138 N      -16.4383  34.6623  11.0252   N         1 RES1   0.0000
  2139 Zn     -17.5976  33.0775  10.6390   Z         1 RES1   0.0000
  2140 C1     -15.7532  39.2507  12.9840   C         1 RES1   0.0000
  2141 H1     -16.1624  38.4185  13.0518   H         1 RES1   0.0000
  2142 H5     -17.9004  38.4662   9.6154   H         1 RES1   0.0000
  2143 C1     -11.6025  38.6315  10.6101   C         1 RES1   0.0000
  2144 H1     -11.6566  39.1830  11.3557   H         1 RES1   0.0000
  2145 C2     -12.1888  37.4250   8.9755   C         1 RES1   0.0000
  2146 C5     -12.8497  36.7023   7.9351   C         1 RES1   0.0000
  2147 H5     -13.7750  36.7083   7.8673   H         1 RES1   0.0000
  2148 C2     -14.8440  35.8920  11.9799   C         1 RES1   0.0000
  2149 C5     -13.8083  36.2404  12.9225   C         1 RES1   0.0000
  2150 H5     -13.3578  37.0527  12.8752   H         1 RES1   0.0000
  2151 C6     -12.0957  36.0055   7.0476   C         1 RES1   0.0000
  2152 H6     -12.5244  35.5217   6.3793   H         1 RES1   0.0000
  2153 C6     -13.5210  35.2967  13.9108   C         1 RES1   0.0000
  2154 H6     -12.8531  35.4699  14.5335   H         1 RES1   0.0000
  2155 N      -15.0176  39.5931  11.9279   N         1 RES1   0.0000
  2156 N      -15.3521  36.6247  10.8891   N         1 RES1   0.0000
  2157 N      -12.6842  38.2034   9.9922   N         1 RES1   0.0000
  2158 Zn     -14.6363  38.4151  10.3784   Z         1 RES1   0.0000
  2159 C1     -18.7303  33.7491  13.2877   C         1 RES1   0.0000
  2160 C1      -8.3680  26.6316  13.2877   C         1 RES1   0.0000
  2161 C1      -7.3852  39.1644  13.2877   C         1 RES1   0.0000
  2162 C2      -6.3680  26.4843  14.0774   C         1 RES1   0.0000
  2163 C6      -3.9840  27.2807  12.9724   C         1 RES1   0.0000
  2164 C2      -2.6725  32.2971  13.4574   C         1 RES1   0.0000
  2165 C5      -1.7322  31.4569  14.0280   C         1 RES1   0.0000
  2166 N       -3.2472  33.4717  13.9476   N         1 RES1   0.0000
  2167 H1      -6.8266  27.9450  23.7286   H         1 RES1   0.0000
  2168 C5      -9.1450  24.5823  25.3080   C         1 RES1   0.0000
  2169 H5      -9.4933  24.8153  26.1372   H         1 RES1   0.0000
  2170 C6      -9.3818  23.3520  24.7532   C         1 RES1   0.0000
  2171 H6      -9.8979  22.7368  25.2213   H         1 RES1   0.0000
  2172 H6      -9.0462  22.1455  23.1375   H         1 RES1   0.0000
  2173 C2      -6.3174  27.1068  28.5773   C         1 RES1   0.0000
  2174 C5      -5.1197  27.5010  28.0066   C         1 RES1   0.0000
  2175 H5      -5.0886  27.8972  27.1649   H         1 RES1   0.0000
  2176 C1     -11.3865  27.7319  26.1703   C         1 RES1   0.0000
  2177 H1     -11.3324  27.1805  25.4247   H         1 RES1   0.0000
  2178 C2     -10.8002  28.9384  27.8049   C         1 RES1   0.0000
  2179 C5     -10.1393  29.6611  28.8452   C         1 RES1   0.0000
  2180 H5      -9.2140  29.6552  28.9130   H         1 RES1   0.0000
  2181 C2      -8.1450  30.4714  24.8005   C         1 RES1   0.0000
  2182 C5      -9.1807  30.1230  23.8578   C         1 RES1   0.0000
  2183 H5      -9.6312  29.3107  23.9051   H         1 RES1   0.0000
  2184 C6     -10.8933  30.3580  29.7327   C         1 RES1   0.0000
  2185 H6     -10.4646  30.8417  30.4010   H         1 RES1   0.0000
  2186 C6      -9.4680  31.0667  22.8695   C         1 RES1   0.0000
  2187 H6     -10.1359  30.8935  22.2468   H         1 RES1   0.0000
  2188 N       -7.9714  26.7703  24.8525   N         1 RES1   0.0000
  2189 N       -7.6369  29.7388  25.8913   N         1 RES1   0.0000
  2190 N       -7.6220  27.1964  28.0870   N         1 RES1   0.0000
  2191 N      -10.3048  28.1600  26.7882   N         1 RES1   0.0000
  2192 Zn      -8.3527  27.9484  26.4020   Z         1 RES1   0.0000
  2193 C1     -14.6210  26.4591  28.7470   C         1 RES1   0.0000
  2194 H1     -13.6957  26.5208  28.8148   H         1 RES1   0.0000
  2195 H5     -12.8681  24.9918  25.3784   H         1 RES1   0.0000
  2196 C1     -16.1601  30.3633  26.3731   C         1 RES1   0.0000
  2197 H1     -16.6107  30.0407  27.1187   H         1 RES1   0.0000
  2198 C2     -14.8222  30.4588  24.7385   C         1 RES1   0.0000
  2199 C5     -13.8658  30.2478  23.6981   C         1 RES1   0.0000
  2200 H5     -13.4083  29.4435  23.6303   H         1 RES1   0.0000
  2201 C2     -12.1669  28.9258  27.7429   C         1 RES1   0.0000
  2202 C5     -12.9865  29.6485  28.6855   C         1 RES1   0.0000
  2203 H5     -13.9152  29.6326  28.6382   H         1 RES1   0.0000
  2204 C6     -13.6394  31.2492  22.8106   C         1 RES1   0.0000
  2205 H6     -13.0060  31.1198  22.1423   H         1 RES1   0.0000
  2206 C6     -12.3129  30.3692  29.6738   C         1 RES1   0.0000
  2207 H6     -12.7968  30.8610  30.2965   H         1 RES1   0.0000
  2208 N      -15.2854  26.9250  27.6909   N         1 RES1   0.0000
  2209 N      -12.5474  28.1195  26.6521   N         1 RES1   0.0000
  2210 N      -15.2486  29.6406  25.7552   N         1 RES1   0.0000
  2211 Zn     -14.4558  27.8442  26.1414   Z         1 RES1   0.0000
  2212 C1      -4.1093  33.8354  28.7470   C         1 RES1   0.0000
  2213 H1      -4.6254  34.6059  28.8148   H         1 RES1   0.0000
  2214 C2      -3.2369  32.0297  27.9573   C         1 RES1   0.0000
  2215 C5      -2.8725  30.9167  27.2353   C         1 RES1   0.0000
  2216 H5      -3.2483  30.7316  26.4062   H         1 RES1   0.0000
  2217 C6      -1.9253  30.0965  27.7902   C         1 RES1   0.0000
  2218 H6      -1.6506  29.3419  27.3220   H         1 RES1   0.0000
  2219 C6      -1.3552  30.3633  29.0622   C         1 RES1   0.0000
  2220 H6      -0.7127  29.7839  29.4059   H         1 RES1   0.0000
  2221 H5      -3.7150  36.0871  25.3784   H         1 RES1   0.0000
  2222 C1      -6.7208  30.5504  26.3731   C         1 RES1   0.0000
  2223 H1      -6.2162  30.3215  27.1187   H         1 RES1   0.0000
  2224 C2      -7.4726  31.6613  24.7385   C         1 RES1   0.0000
  2225 C5      -7.7680  32.5951  23.6981   C         1 RES1   0.0000
  2226 H5      -7.3002  33.3934  23.6303   H         1 RES1   0.0000
  2227 C2      -7.4726  34.7273  27.7429   C         1 RES1   0.0000
  2228 C5      -7.6887  33.6562  28.6855   C         1 RES1   0.0000
  2229 H5      -7.2105  32.8599  28.6382   H         1 RES1   0.0000
  2230 C6      -8.7485  32.2905  22.8106   C         1 RES1   0.0000
  2231 H6      -8.9531  32.9037  22.1423   H         1 RES1   0.0000
  2232 C6      -8.6496  33.8792  29.6738   C         1 RES1   0.0000
  2233 H6      -8.8335  33.2142  30.2965   H         1 RES1   0.0000
  2234 N       -4.1805  33.0271  27.6909   N         1 RES1   0.0000
  2235 N       -6.5840  34.8010  26.6521   N         1 RES1   0.0000
  2236 N       -6.5507  31.7012  25.7552   N         1 RES1   0.0000
  2237 Zn      -5.3914  33.2859  26.1414   Z         1 RES1   0.0000
  2238 C5      -5.2220  39.5161  25.3080   C         1 RES1   0.0000
  2239 H5      -5.2495  39.0980  26.1372   H         1 RES1   0.0000
  2240 H6      -3.2472  39.7869  25.2213   H         1 RES1   0.0000
  2241 C1      -6.8289  36.0002  26.1703   C         1 RES1   0.0000
  2242 H1      -6.3783  36.3227  25.4247   H         1 RES1   0.0000
  2243 C2      -8.1668  35.9046  27.8049   C         1 RES1   0.0000
  2244 C5      -9.1232  36.1157  28.8452   C         1 RES1   0.0000
  2245 H5      -9.5807  36.9200  28.9130   H         1 RES1   0.0000
  2246 C2     -10.8221  37.4376  24.8005   C         1 RES1   0.0000
  2247 C5     -10.0025  36.7149  23.8578   C         1 RES1   0.0000
  2248 H5      -9.0738  36.7308  23.9051   H         1 RES1   0.0000
  2249 C6      -9.3496  35.1142  29.7327   C         1 RES1   0.0000
  2250 H6      -9.9830  35.2436  30.4010   H         1 RES1   0.0000
  2251 C6     -10.6761  35.9942  22.8695   C         1 RES1   0.0000
  2252 H6     -10.1922  35.5025  22.2468   H         1 RES1   0.0000
  2253 N       -7.7036  39.4385  24.8525   N         1 RES1   0.0000
  2254 N      -10.4416  38.2439  25.8913   N         1 RES1   0.0000
  2255 N       -8.2473  39.5281  28.0870   N         1 RES1   0.0000
  2256 N       -7.7404  36.7229  26.7882   N         1 RES1   0.0000
  2257 Zn      -8.5332  38.5193  26.4020   Z         1 RES1   0.0000
  2258 C5     -20.1165  35.4467  25.3080   C         1 RES1   0.0000
  2259 H5     -19.7407  35.6319  26.1372   H         1 RES1   0.0000
  2260 H6     -21.3384  37.0215  25.2213   H         1 RES1   0.0000
  2261 C1     -16.2682  35.8130  26.1703   C         1 RES1   0.0000
  2262 H1     -16.7728  36.0420  25.4247   H         1 RES1   0.0000
  2263 C2     -15.5164  34.7021  27.8049   C         1 RES1   0.0000
  2264 C5     -15.2210  33.7684  28.8452   C         1 RES1   0.0000
  2265 H5     -15.6888  32.9700  28.9130   H         1 RES1   0.0000
  2266 C2     -15.5164  31.6361  24.8005   C         1 RES1   0.0000
  2267 C5     -15.3003  32.7072  23.8578   C         1 RES1   0.0000
  2268 H5     -15.7785  33.5036  23.9051   H         1 RES1   0.0000
  2269 C6     -14.2405  34.0730  29.7327   C         1 RES1   0.0000
  2270 H6     -14.0359  33.4598  30.4010   H         1 RES1   0.0000
  2271 C6     -14.3394  32.4842  22.8695   C         1 RES1   0.0000
  2272 H6     -14.1555  33.1492  22.2468   H         1 RES1   0.0000
  2273 N      -18.8085  33.3363  24.8525   N         1 RES1   0.0000
  2274 N      -16.4050  31.5625  25.8913   N         1 RES1   0.0000
  2275 N      -18.6142  32.8207  28.0870   N         1 RES1   0.0000
  2276 N      -16.4383  34.6623  26.7882   N         1 RES1   0.0000
  2277 Zn     -17.5976  33.0775  26.4020   Z         1 RES1   0.0000
  2278 C1     -15.7532  39.2507  28.7470   C         1 RES1   0.0000
  2279 H1     -16.1624  38.4185  28.8148   H         1 RES1   0.0000
  2280 H5     -17.9004  38.4662  25.3784   H         1 RES1   0.0000
  2281 C1     -11.6025  38.6315  26.3731   C         1 RES1   0.0000
  2282 H1     -11.6566  39.1830  27.1187   H         1 RES1   0.0000
  2283 C2     -12.1888  37.4250  24.7385   C         1 RES1   0.0000
  2284 C5     -12.8497  36.7023  23.6981   C         1 RES1   0.0000
  2285 H5     -13.7750  36.7083  23.6303   H         1 RES1   0.0000
  2286 C2     -14.8440  35.8920  27.7429   C         1 RES1   0.0000
  2287 C5     -13.8083  36.2404  28.6855   C         1 RES1   0.0000
  2288 H5     -13.3578  37.0527  28.6382   H         1 RES1   0.0000
  2289 C6     -12.0957  36.0055  22.8106   C         1 RES1   0.0000
  2290 H6     -12.5244  35.5217  22.1423   H         1 RES1   0.0000
  2291 C6     -13.5210  35.2967  29.6738   C         1 RES1   0.0000
  2292 H6     -12.8531  35.4699  30.2965   H         1 RES1   0.0000
  2293 N      -15.0176  39.5931  27.6909   N         1 RES1   0.0000
  2294 N      -15.3521  36.6247  26.6521   N         1 RES1   0.0000
  2295 N      -12.6842  38.2034  25.7552   N         1 RES1   0.0000
  2296 Zn     -14.6363  38.4151  26.1414   Z         1 RES1   0.0000
  2297 C1     -18.7303  33.7491  29.0507   C         1 RES1   0.0000
  2298 C1      -8.3680  26.6316  29.0507   C         1 RES1   0.0000
  2299 C1      -7.3852  39.1644  29.0507   C         1 RES1   0.0000
  2300 C2      -6.3680  26.4843  29.8404   C         1 RES1   0.0000
  2301 C6      -3.9840  27.2807  28.7354   C         1 RES1   0.0000
  2302 C2      -2.6725  32.2971  29.2204   C         1 RES1   0.0000
  2303 C5      -1.7322  31.4569  29.7910   C         1 RES1   0.0000
  2304 N       -3.2472  33.4717  29.7106   N         1 RES1   0.0000
  2305 H1      36.6847   0.0245   7.9656   H         1 RES1   0.0000
  2306 C6      41.9400   0.1081   8.9902   C         1 RES1   0.0000
  2307 H6      42.8170   1.0020   7.3745   H         1 RES1   0.0000
  2308 C2      37.1560   0.8846  12.8143   C         1 RES1   0.0000
  2309 C5      36.2157   1.7247  12.2436   C         1 RES1   0.0000
  2310 H5      35.8571   1.5535  11.4019   H         1 RES1   0.0000
  2311 C2      31.3524   1.0910  12.1943   C         1 RES1   0.0000
  2312 C5      32.1340   1.9630  11.4723   C         1 RES1   0.0000
  2313 H5      32.4823   1.7301  10.6432   H         1 RES1   0.0000
  2314 C6      32.3708   3.1934  12.0272   C         1 RES1   0.0000
  2315 H6      32.8869   3.8086  11.5590   H         1 RES1   0.0000
  2316 C6      31.8547   3.5537  13.2992   C         1 RES1   0.0000
  2317 H6      32.0352   4.3999  13.6429   H         1 RES1   0.0000
  2318 C2      37.7204   1.1520  14.0774   C         1 RES1   0.0000
  2319 C6      35.8387   2.8184  12.9724   C         1 RES1   0.0000
  2320 C2      30.8386   1.4460  13.4574   C         1 RES1   0.0000
  2321 C5      31.0961   2.6804  14.0280   C         1 RES1   0.0000
  2322 N       30.1087   0.3610  13.9476   N         1 RES1   0.0000
  2323 H1      36.6847   0.0245  23.7286   H         1 RES1   0.0000
  2324 C6      41.9400   0.1081  24.7532   C         1 RES1   0.0000
  2325 H6      42.8170   1.0020  23.1375   H         1 RES1   0.0000
  2326 C2      37.1560   0.8846  28.5773   C         1 RES1   0.0000
  2327 C5      36.2157   1.7247  28.0066   C         1 RES1   0.0000
  2328 H5      35.8571   1.5535  27.1649   H         1 RES1   0.0000
  2329 C2      31.3524   1.0910  27.9573   C         1 RES1   0.0000
  2330 C5      32.1340   1.9630  27.2353   C         1 RES1   0.0000
  2331 H5      32.4823   1.7301  26.4062   H         1 RES1   0.0000
  2332 C6      32.3708   3.1934  27.7902   C         1 RES1   0.0000
  2333 H6      32.8869   3.8086  27.3220   H         1 RES1   0.0000
  2334 C6      31.8547   3.5537  29.0622   C         1 RES1   0.0000
  2335 H6      32.0352   4.3999  29.4059   H         1 RES1   0.0000
  2336 C2      37.7204   1.1520  29.8404   C         1 RES1   0.0000
  2337 C6      35.8387   2.8184  28.7354   C         1 RES1   0.0000
  2338 C2      30.8386   1.4460  29.2204   C         1 RES1   0.0000
  2339 C5      31.0961   2.6804  29.7910   C         1 RES1   0.0000
  2340 N       30.1087   0.3610  29.7106   N         1 RES1   0.0000
  2341 H1      27.6569   8.0359   7.9656   H         1 RES1   0.0000
  2342 C5      25.3385   4.6733   9.5450   C         1 RES1   0.0000
  2343 H5      24.9902   4.9062  10.3742   H         1 RES1   0.0000
  2344 C6      25.1017   3.4429   8.9902   C         1 RES1   0.0000
  2345 H6      24.5856   2.8277   9.4583   H         1 RES1   0.0000
  2346 H6      25.4373   2.2364   7.3745   H         1 RES1   0.0000
  2347 C2      28.1661   7.1977  12.8143   C         1 RES1   0.0000
  2348 C5      29.3638   7.5919  12.2436   C         1 RES1   0.0000
  2349 H5      29.3949   7.9881  11.4019   H         1 RES1   0.0000
  2350 C1      23.0970   7.8229  10.4073   C         1 RES1   0.0000
  2351 H1      23.1511   7.2714   9.6617   H         1 RES1   0.0000
  2352 C2      23.6833   9.0294  12.0419   C         1 RES1   0.0000
  2353 C5      24.3442   9.7521  13.0822   C         1 RES1   0.0000
  2354 H5      25.2695   9.7461  13.1500   H         1 RES1   0.0000
  2355 C2      26.3385  10.5624   9.0375   C         1 RES1   0.0000
  2356 C5      25.3028  10.2140   8.0948   C         1 RES1   0.0000
  2357 H5      24.8523   9.4017   8.1421   H         1 RES1   0.0000
  2358 C6      23.5902  10.4489  13.9697   C         1 RES1   0.0000
  2359 H6      24.0189  10.9327  14.6380   H         1 RES1   0.0000
  2360 C6      25.0155  11.1577   7.1065   C         1 RES1   0.0000
  2361 H6      24.3476  10.9844   6.4838   H         1 RES1   0.0000
  2362 N       26.5121   6.8613   9.0895   N         1 RES1   0.0000
  2363 N       26.8466   9.8297  10.1283   N         1 RES1   0.0000
  2364 N       26.8615   7.2873  12.3240   N         1 RES1   0.0000
  2365 N       24.1787   8.2509  11.0252   N         1 RES1   0.0000
  2366 Zn      26.1308   8.0393  10.6390   Z         1 RES1   0.0000
  2367 C1      19.8625   6.5500  12.9840   C         1 RES1   0.0000
  2368 H1      20.7878   6.6118  13.0518   H         1 RES1   0.0000
  2369 C2      17.8625   6.6974  12.1943   C         1 RES1   0.0000
  2370 C5      16.7165   6.9383  11.4723   C         1 RES1   0.0000
  2371 H5      16.7440   7.3564  10.6432   H         1 RES1   0.0000
  2372 C6      15.5325   6.5281  12.0272   C         1 RES1   0.0000
  2373 H6      14.7417   6.6675  11.5590   H         1 RES1   0.0000
  2374 C6      15.4785   5.9010  13.2992   C         1 RES1   0.0000
  2375 H6      14.6555   5.6342  13.6429   H         1 RES1   0.0000
  2376 H5      21.6154   5.0827   9.6154   H         1 RES1   0.0000
  2377 C1      18.3234  10.4542  10.6101   C         1 RES1   0.0000
  2378 H1      17.8728  10.1317  11.3557   H         1 RES1   0.0000
  2379 C2      19.6613  10.5498   8.9755   C         1 RES1   0.0000
  2380 C5      20.6177  10.3387   7.9351   C         1 RES1   0.0000
  2381 H5      21.0752   9.5344   7.8673   H         1 RES1   0.0000
  2382 C2      22.3166   9.0168  11.9799   C         1 RES1   0.0000
  2383 C5      21.4970   9.7395  12.9225   C         1 RES1   0.0000
  2384 H5      20.5683   9.7235  12.8752   H         1 RES1   0.0000
  2385 C6      20.8441  11.3402   7.0476   C         1 RES1   0.0000
  2386 H6      21.4775  11.2107   6.3793   H         1 RES1   0.0000
  2387 C6      22.1706  10.4602  13.9108   C         1 RES1   0.0000
  2388 H6      21.6867  10.9519  14.5335   H         1 RES1   0.0000
  2389 N       19.1981   7.0159  11.9279   N         1 RES1   0.0000
  2390 N       21.9361   8.2105  10.8891   N         1 RES1   0.0000
  2391 N       19.2349   9.7315   9.9922   N         1 RES1   0.0000
  2392 Zn      20.0277   7.9351  10.3784   Z         1 RES1   0.0000
  2393 C1      30.3742  13.9263  12.9840   C         1 RES1   0.0000
  2394 H1      29.8581  14.6968  13.0518   H         1 RES1   0.0000
  2395 C2      31.2466  12.1206  12.1943   C         1 RES1   0.0000
  2396 C5      31.6110  11.0077  11.4723   C         1 RES1   0.0000
  2397 H5      31.2352  10.8225  10.6432   H         1 RES1   0.0000
  2398 C6      32.5582  10.1874  12.0272   C         1 RES1   0.0000
  2399 H6      32.8329   9.4329  11.5590   H         1 RES1   0.0000
  2400 C6      33.1283  10.4542  13.2992   C         1 RES1   0.0000
  2401 H6      33.7708   9.8749  13.6429   H         1 RES1   0.0000
  2402 H5      30.7685  16.1781   9.6154   H         1 RES1   0.0000
  2403 C1      27.7627  10.6413  10.6101   C         1 RES1   0.0000
  2404 H1      28.2673  10.4124  11.3557   H         1 RES1   0.0000
  2405 C2      27.0109  11.7523   8.9755   C         1 RES1   0.0000
  2406 C5      26.7155  12.6860   7.9351   C         1 RES1   0.0000
  2407 H5      27.1833  13.4844   7.8673   H         1 RES1   0.0000
  2408 C2      27.0109  14.8183  11.9799   C         1 RES1   0.0000
  2409 C5      26.7948  13.7472  12.9225   C         1 RES1   0.0000
  2410 H5      27.2730  12.9508  12.8752   H         1 RES1   0.0000
  2411 C6      25.7350  12.3814   7.0476   C         1 RES1   0.0000
  2412 H6      25.5304  12.9946   6.3793   H         1 RES1   0.0000
  2413 C6      25.8339  13.9701  13.9108   C         1 RES1   0.0000
  2414 H6      25.6500  13.3052  14.5335   H         1 RES1   0.0000
  2415 N       30.3030  13.1180  11.9279   N         1 RES1   0.0000
  2416 N       27.8995  14.8919  10.8891   N         1 RES1   0.0000
  2417 N       27.9328  11.7921   9.9922   N         1 RES1   0.0000
  2418 Zn      29.0921  13.3769  10.3784   Z         1 RES1   0.0000
  2419 H1      25.1902  19.9336   7.9656   H         1 RES1   0.0000
  2420 C5      29.2615  19.6071   9.5450   C         1 RES1   0.0000
  2421 H5      29.2340  19.1890  10.3742   H         1 RES1   0.0000
  2422 C6      30.4455  20.0172   8.9902   C         1 RES1   0.0000
  2423 H6      31.2363  19.8778   9.4583   H         1 RES1   0.0000
  2424 H6      31.3225  20.9111   7.3745   H         1 RES1   0.0000
  2425 C2      25.6615  20.7936  12.8143   C         1 RES1   0.0000
  2426 C5      24.7212  21.6338  12.2436   C         1 RES1   0.0000
  2427 H5      24.3626  21.4626  11.4019   H         1 RES1   0.0000
  2428 C1      27.6546  16.0911  10.4073   C         1 RES1   0.0000
  2429 H1      28.1052  16.4136   9.6617   H         1 RES1   0.0000
  2430 C2      26.3167  15.9956  12.0419   C         1 RES1   0.0000
  2431 C5      25.3603  16.2066  13.0822   C         1 RES1   0.0000
  2432 H5      24.9028  17.0109  13.1500   H         1 RES1   0.0000
  2433 C2      23.6614  17.5286   9.0375   C         1 RES1   0.0000
  2434 C5      24.4810  16.8059   8.0948   C         1 RES1   0.0000
  2435 H5      25.4097  16.8218   8.1421   H         1 RES1   0.0000
  2436 C6      25.1339  15.2052  13.9697   C         1 RES1   0.0000
  2437 H6      24.5005  15.3346  14.6380   H         1 RES1   0.0000
  2438 C6      23.8074  16.0851   7.1065   C         1 RES1   0.0000
  2439 H6      24.2913  15.5934   6.4838   H         1 RES1   0.0000
  2440 N       26.7799  19.5294   9.0895   N         1 RES1   0.0000
  2441 N       24.0419  18.3349  10.1283   N         1 RES1   0.0000
  2442 N       26.2362  19.6190  12.3240   N         1 RES1   0.0000
  2443 N       26.7431  16.8138  11.0252   N         1 RES1   0.0000
  2444 Zn      25.9503  18.6102  10.6390   Z         1 RES1   0.0000
  2445 H1      16.1199  11.8485   7.9656   H         1 RES1   0.0000
  2446 C5      14.3670  15.5377   9.5450   C         1 RES1   0.0000
  2447 H5      14.7428  15.7228  10.3742   H         1 RES1   0.0000
  2448 C6      13.4198  16.3579   8.9902   C         1 RES1   0.0000
  2449 H6      13.1451  17.1125   9.4583   H         1 RES1   0.0000
  2450 H6      12.2072  16.6705   7.3745   H         1 RES1   0.0000
  2451 C2      15.1394  11.8266  12.8143   C         1 RES1   0.0000
  2452 C5      14.8819  10.5922  12.2436   C         1 RES1   0.0000
  2453 H5      15.2095  10.3673  11.4019   H         1 RES1   0.0000
  2454 C1      18.2153  15.9040  10.4073   C         1 RES1   0.0000
  2455 H1      17.7107  16.1329   9.6617   H         1 RES1   0.0000
  2456 C2      18.9671  14.7931  12.0419   C         1 RES1   0.0000
  2457 C5      19.2625  13.8593  13.0822   C         1 RES1   0.0000
  2458 H5      18.7947  13.0610  13.1500   H         1 RES1   0.0000
  2459 C2      18.9671  11.7271   9.0375   C         1 RES1   0.0000
  2460 C5      19.1832  12.7982   8.0948   C         1 RES1   0.0000
  2461 H5      18.7050  13.5945   8.1421   H         1 RES1   0.0000
  2462 C6      20.2430  14.1639  13.9697   C         1 RES1   0.0000
  2463 H6      20.4476  13.5507  14.6380   H         1 RES1   0.0000
  2464 C6      20.1441  12.5752   7.1065   C         1 RES1   0.0000
  2465 H6      20.3280  13.2401   6.4838   H         1 RES1   0.0000
  2466 N       15.6750  13.4273   9.0895   N         1 RES1   0.0000
  2467 N       18.0785  11.6534  10.1283   N         1 RES1   0.0000
  2468 N       15.8693  12.9116  12.3240   N         1 RES1   0.0000
  2469 N       18.0452  14.7532  11.0252   N         1 RES1   0.0000
  2470 Zn      16.8859  13.1685  10.6390   Z         1 RES1   0.0000
  2471 C1      18.7303  19.3416  12.9840   C         1 RES1   0.0000
  2472 H1      18.3211  18.5094  13.0518   H         1 RES1   0.0000
  2473 C2      19.8579  21.0000  12.1943   C         1 RES1   0.0000
  2474 C5      20.6395  21.8720  11.4723   C         1 RES1   0.0000
  2475 H5      20.9878  21.6391  10.6432   H         1 RES1   0.0000
  2476 C6      20.8763  23.1024  12.0272   C         1 RES1   0.0000
  2477 H6      21.3924  23.7176  11.5590   H         1 RES1   0.0000
  2478 C6      20.3602  23.4628  13.2992   C         1 RES1   0.0000
  2479 H6      20.5407  24.3089  13.6429   H         1 RES1   0.0000
  2480 H5      16.5831  18.5572   9.6154   H         1 RES1   0.0000
  2481 C1      22.8810  18.7224  10.6101   C         1 RES1   0.0000
  2482 H1      22.8269  19.2739  11.3557   H         1 RES1   0.0000
  2483 C2      22.2947  17.5159   8.9755   C         1 RES1   0.0000
  2484 C5      21.6338  16.7932   7.9351   C         1 RES1   0.0000
  2485 H5      20.7085  16.7992   7.8673   H         1 RES1   0.0000
  2486 C2      19.6395  15.9829  11.9799   C         1 RES1   0.0000
  2487 C5      20.6752  16.3314  12.9225   C         1 RES1   0.0000
  2488 H5      21.1257  17.1436  12.8752   H         1 RES1   0.0000
  2489 C6      22.3878  16.0964   7.0476   C         1 RES1   0.0000
  2490 H6      21.9591  15.6126   6.3793   H         1 RES1   0.0000
  2491 C6      20.9625  15.3877  13.9108   C         1 RES1   0.0000
  2492 H6      21.6304  15.5609  14.5335   H         1 RES1   0.0000
  2493 N       19.4659  19.6840  11.9279   N         1 RES1   0.0000
  2494 N       19.1314  16.7156  10.8891   N         1 RES1   0.0000
  2495 N       21.7993  18.2944   9.9922   N         1 RES1   0.0000
  2496 Zn      19.8472  18.5060  10.3784   Z         1 RES1   0.0000
  2497 C1      15.7532  13.8401  13.2877   C         1 RES1   0.0000
  2498 C1      26.1155   6.7226  13.2877   C         1 RES1   0.0000
  2499 C1      27.0983  19.2553  13.2877   C         1 RES1   0.0000
  2500 C2      14.6256  12.1816  14.0774   C         1 RES1   0.0000
  2501 C2      28.1155   6.5753  14.0774   C         1 RES1   0.0000
  2502 C2      26.2259  21.0611  14.0774   C         1 RES1   0.0000
  2503 C6      14.1233   9.7189  12.9724   C         1 RES1   0.0000
  2504 C6      30.4995   7.3716  12.9724   C         1 RES1   0.0000
  2505 C6      24.3442  22.7275  12.9724   C         1 RES1   0.0000
  2506 C2      17.8119   6.0749  13.4574   C         1 RES1   0.0000
  2507 C2      31.8110  12.3880  13.4574   C         1 RES1   0.0000
  2508 C2      19.3441  21.3551  13.4574   C         1 RES1   0.0000
  2509 C5      16.6142   5.6807  14.0280   C         1 RES1   0.0000
  2510 C5      32.7513  11.5479  14.0280   C         1 RES1   0.0000
  2511 C5      19.6016  22.5894  14.0280   C         1 RES1   0.0000
  2512 N       19.1165   5.9853  13.9476   N         1 RES1   0.0000
  2513 N       31.2363  13.5627  13.9476   N         1 RES1   0.0000
  2514 N       18.6142  20.2700  13.9476   N         1 RES1   0.0000
  2515 H1      27.6569   8.0359  23.7286   H         1 RES1   0.0000
  2516 C5      25.3385   4.6733  25.3080   C         1 RES1   0.0000
  2517 H5      24.9902   4.9062  26.1372   H         1 RES1   0.0000
  2518 C6      25.1017   3.4429  24.7532   C         1 RES1   0.0000
  2519 H6      24.5856   2.8277  25.2213   H         1 RES1   0.0000
  2520 H6      25.4373   2.2364  23.1375   H         1 RES1   0.0000
  2521 C2      28.1661   7.1977  28.5773   C         1 RES1   0.0000
  2522 C5      29.3638   7.5919  28.0066   C         1 RES1   0.0000
  2523 H5      29.3949   7.9881  27.1649   H         1 RES1   0.0000
  2524 C1      23.0970   7.8229  26.1703   C         1 RES1   0.0000
  2525 H1      23.1511   7.2714  25.4247   H         1 RES1   0.0000
  2526 C2      23.6833   9.0294  27.8049   C         1 RES1   0.0000
  2527 C5      24.3442   9.7521  28.8452   C         1 RES1   0.0000
  2528 H5      25.2695   9.7461  28.9130   H         1 RES1   0.0000
  2529 C2      26.3385  10.5624  24.8005   C         1 RES1   0.0000
  2530 C5      25.3028  10.2140  23.8578   C         1 RES1   0.0000
  2531 H5      24.8523   9.4017  23.9051   H         1 RES1   0.0000
  2532 C6      23.5902  10.4489  29.7327   C         1 RES1   0.0000
  2533 H6      24.0189  10.9327  30.4010   H         1 RES1   0.0000
  2534 C6      25.0155  11.1577  22.8695   C         1 RES1   0.0000
  2535 H6      24.3476  10.9844  22.2468   H         1 RES1   0.0000
  2536 N       26.5121   6.8613  24.8525   N         1 RES1   0.0000
  2537 N       26.8466   9.8297  25.8913   N         1 RES1   0.0000
  2538 N       26.8615   7.2873  28.0870   N         1 RES1   0.0000
  2539 N       24.1787   8.2509  26.7882   N         1 RES1   0.0000
  2540 Zn      26.1308   8.0393  26.4020   Z         1 RES1   0.0000
  2541 C1      19.8625   6.5500  28.7470   C         1 RES1   0.0000
  2542 H1      20.7878   6.6118  28.8148   H         1 RES1   0.0000
  2543 C2      17.8625   6.6974  27.9573   C         1 RES1   0.0000
  2544 C5      16.7165   6.9383  27.2353   C         1 RES1   0.0000
  2545 H5      16.7440   7.3564  26.4062   H         1 RES1   0.0000
  2546 C6      15.5325   6.5281  27.7902   C         1 RES1   0.0000
  2547 H6      14.7417   6.6675  27.3220   H         1 RES1   0.0000
  2548 C6      15.4785   5.9010  29.0622   C         1 RES1   0.0000
  2549 H6      14.6555   5.6342  29.4059   H         1 RES1   0.0000
  2550 H5      21.6154   5.0827  25.3784   H         1 RES1   0.0000
  2551 C1      18.3234  10.4542  26.3731   C         1 RES1   0.0000
  2552 H1      17.8728  10.1317  27.1187   H         1 RES1   0.0000
  2553 C2      19.6613  10.5498  24.7385   C         1 RES1   0.0000
  2554 C5      20.6177  10.3387  23.6981   C         1 RES1   0.0000
  2555 H5      21.0752   9.5344  23.6303   H         1 RES1   0.0000
  2556 C2      22.3166   9.0168  27.7429   C         1 RES1   0.0000
  2557 C5      21.4970   9.7395  28.6855   C         1 RES1   0.0000
  2558 H5      20.5683   9.7235  28.6382   H         1 RES1   0.0000
  2559 C6      20.8441  11.3402  22.8106   C         1 RES1   0.0000
  2560 H6      21.4775  11.2107  22.1423   H         1 RES1   0.0000
  2561 C6      22.1706  10.4602  29.6738   C         1 RES1   0.0000
  2562 H6      21.6867  10.9519  30.2965   H         1 RES1   0.0000
  2563 N       19.1981   7.0159  27.6909   N         1 RES1   0.0000
  2564 N       21.9361   8.2105  26.6521   N         1 RES1   0.0000
  2565 N       19.2349   9.7315  25.7552   N         1 RES1   0.0000
  2566 Zn      20.0277   7.9351  26.1414   Z         1 RES1   0.0000
  2567 C1      30.3742  13.9263  28.7470   C         1 RES1   0.0000
  2568 H1      29.8581  14.6968  28.8148   H         1 RES1   0.0000
  2569 C2      31.2466  12.1206  27.9573   C         1 RES1   0.0000
  2570 C5      31.6110  11.0077  27.2353   C         1 RES1   0.0000
  2571 H5      31.2352  10.8225  26.4062   H         1 RES1   0.0000
  2572 C6      32.5582  10.1874  27.7902   C         1 RES1   0.0000
  2573 H6      32.8329   9.4329  27.3220   H         1 RES1   0.0000
  2574 C6      33.1283  10.4542  29.0622   C         1 RES1   0.0000
  2575 H6      33.7708   9.8749  29.4059   H         1 RES1   0.0000
  2576 H5      30.7685  16.1781  25.3784   H         1 RES1   0.0000
  2577 C1      27.7627  10.6413  26.3731   C         1 RES1   0.0000
  2578 H1      28.2673  10.4124  27.1187   H         1 RES1   0.0000
  2579 C2      27.0109  11.7523  24.7385   C         1 RES1   0.0000
  2580 C5      26.7155  12.6860  23.6981   C         1 RES1   0.0000
  2581 H5      27.1833  13.4844  23.6303   H         1 RES1   0.0000
  2582 C2      27.0109  14.8183  27.7429   C         1 RES1   0.0000
  2583 C5      26.7948  13.7472  28.6855   C         1 RES1   0.0000
  2584 H5      27.2730  12.9508  28.6382   H         1 RES1   0.0000
  2585 C6      25.7350  12.3814  22.8106   C         1 RES1   0.0000
  2586 H6      25.5304  12.9946  22.1423   H         1 RES1   0.0000
  2587 C6      25.8339  13.9701  29.6738   C         1 RES1   0.0000
  2588 H6      25.6500  13.3052  30.2965   H         1 RES1   0.0000
  2589 N       30.3030  13.1180  27.6909   N         1 RES1   0.0000
  2590 N       27.8995  14.8919  26.6521   N         1 RES1   0.0000
  2591 N       27.9328  11.7921  25.7552   N         1 RES1   0.0000
  2592 Zn      29.0921  13.3769  26.1414   Z         1 RES1   0.0000
  2593 H1      25.1902  19.9336  23.7286   H         1 RES1   0.0000
  2594 C5      29.2615  19.6071  25.3080   C         1 RES1   0.0000
  2595 H5      29.2340  19.1890  26.1372   H         1 RES1   0.0000
  2596 C6      30.4455  20.0172  24.7532   C         1 RES1   0.0000
  2597 H6      31.2363  19.8778  25.2213   H         1 RES1   0.0000
  2598 H6      31.3225  20.9111  23.1375   H         1 RES1   0.0000
  2599 C2      25.6615  20.7936  28.5773   C         1 RES1   0.0000
  2600 C5      24.7212  21.6338  28.0066   C         1 RES1   0.0000
  2601 H5      24.3626  21.4626  27.1649   H         1 RES1   0.0000
  2602 C1      27.6546  16.0911  26.1703   C         1 RES1   0.0000
  2603 H1      28.1052  16.4136  25.4247   H         1 RES1   0.0000
  2604 C2      26.3167  15.9956  27.8049   C         1 RES1   0.0000
  2605 C5      25.3603  16.2066  28.8452   C         1 RES1   0.0000
  2606 H5      24.9028  17.0109  28.9130   H         1 RES1   0.0000
  2607 C2      23.6614  17.5286  24.8005   C         1 RES1   0.0000
  2608 C5      24.4810  16.8059  23.8578   C         1 RES1   0.0000
  2609 H5      25.4097  16.8218  23.9051   H         1 RES1   0.0000
  2610 C6      25.1339  15.2052  29.7327   C         1 RES1   0.0000
  2611 H6      24.5005  15.3346  30.4010   H         1 RES1   0.0000
  2612 C6      23.8074  16.0851  22.8695   C         1 RES1   0.0000
  2613 H6      24.2913  15.5934  22.2468   H         1 RES1   0.0000
  2614 N       26.7799  19.5294  24.8525   N         1 RES1   0.0000
  2615 N       24.0419  18.3349  25.8913   N         1 RES1   0.0000
  2616 N       26.2362  19.6190  28.0870   N         1 RES1   0.0000
  2617 N       26.7431  16.8138  26.7882   N         1 RES1   0.0000
  2618 Zn      25.9503  18.6102  26.4020   Z         1 RES1   0.0000
  2619 H1      16.1199  11.8485  23.7286   H         1 RES1   0.0000
  2620 C5      14.3670  15.5377  25.3080   C         1 RES1   0.0000
  2621 H5      14.7428  15.7228  26.1372   H         1 RES1   0.0000
  2622 C6      13.4198  16.3579  24.7532   C         1 RES1   0.0000
  2623 H6      13.1451  17.1125  25.2213   H         1 RES1   0.0000
  2624 H6      12.2072  16.6705  23.1375   H         1 RES1   0.0000
  2625 C2      15.1394  11.8266  28.5773   C         1 RES1   0.0000
  2626 C5      14.8819  10.5922  28.0066   C         1 RES1   0.0000
  2627 H5      15.2095  10.3673  27.1649   H         1 RES1   0.0000
  2628 C1      18.2153  15.9040  26.1703   C         1 RES1   0.0000
  2629 H1      17.7107  16.1329  25.4247   H         1 RES1   0.0000
  2630 C2      18.9671  14.7931  27.8049   C         1 RES1   0.0000
  2631 C5      19.2625  13.8593  28.8452   C         1 RES1   0.0000
  2632 H5      18.7947  13.0610  28.9130   H         1 RES1   0.0000
  2633 C2      18.9671  11.7271  24.8005   C         1 RES1   0.0000
  2634 C5      19.1832  12.7982  23.8578   C         1 RES1   0.0000
  2635 H5      18.7050  13.5945  23.9051   H         1 RES1   0.0000
  2636 C6      20.2430  14.1639  29.7327   C         1 RES1   0.0000
  2637 H6      20.4476  13.5507  30.4010   H         1 RES1   0.0000
  2638 C6      20.1441  12.5752  22.8695   C         1 RES1   0.0000
  2639 H6      20.3280  13.2401  22.2468   H         1 RES1   0.0000
  2640 N       15.6750  13.4273  24.8525   N         1 RES1   0.0000
  2641 N       18.0785  11.6534  25.8913   N         1 RES1   0.0000
  2642 N       15.8693  12.9116  28.0870   N         1 RES1   0.0000
  2643 N       18.0452  14.7532  26.7882   N         1 RES1   0.0000
  2644 Zn      16.8859  13.1685  26.4020   Z         1 RES1   0.0000
  2645 C1      18.7303  19.3416  28.7470   C         1 RES1   0.0000
  2646 H1      18.3211  18.5094  28.8148   H         1 RES1   0.0000
  2647 C2      19.8579  21.0000  27.9573   C         1 RES1   0.0000
  2648 C5      20.6395  21.8720  27.2353   C         1 RES1   0.0000
  2649 H5      20.9878  21.6391  26.4062   H         1 RES1   0.0000
  2650 C6      20.8763  23.1024  27.7902   C         1 RES1   0.0000
  2651 H6      21.3924  23.7176  27.3220   H         1 RES1   0.0000
  2652 C6      20.3602  23.4628  29.0622   C         1 RES1   0.0000
  2653 H6      20.5407  24.3089  29.4059   H         1 RES1   0.0000
  2654 H5      16.5831  18.5572  25.3784   H         1 RES1   0.0000
  2655 C1      22.8810  18.7224  26.3731   C         1 RES1   0.0000
  2656 H1      22.8269  19.2739  27.1187   H         1 RES1   0.0000
  2657 C2      22.2947  17.5159  24.7385   C         1 RES1   0.0000
  2658 C5      21.6338  16.7932  23.6981   C         1 RES1   0.0000
  2659 H5      20.7085  16.7992  23.6303   H         1 RES1   0.0000
  2660 C2      19.6395  15.9829  27.7429   C         1 RES1   0.0000
  2661 C5      20.6752  16.3314  28.6855   C         1 RES1   0.0000
  2662 H5      21.1257  17.1436  28.6382   H         1 RES1   0.0000
  2663 C6      22.3878  16.0964  22.8106   C         1 RES1   0.0000
  2664 H6      21.9591  15.6126  22.1423   H         1 RES1   0.0000
  2665 C6      20.9625  15.3877  29.6738   C         1 RES1   0.0000
  2666 H6      21.6304  15.5609  30.2965   H         1 RES1   0.0000
  2667 N       19.4659  19.6840  27.6909   N         1 RES1   0.0000
  2668 N       19.1314  16.7156  26.6521   N         1 RES1   0.0000
  2669 N       21.7993  18.2944  25.7552   N         1 RES1   0.0000
  2670 Zn      19.8472  18.5060  26.1414   Z         1 RES1   0.0000
  2671 C1      15.7532  13.8401  29.0507   C         1 RES1   0.0000
  2672 C1      26.1155   6.7226  29.0507   C         1 RES1   0.0000
  2673 C1      27.0983  19.2553  29.0507   C         1 RES1   0.0000
  2674 C2      14.6256  12.1816  29.8404   C         1 RES1   0.0000
  2675 C2      28.1155   6.5753  29.8404   C         1 RES1   0.0000
  2676 C2      26.2259  21.0611  29.8404   C         1 RES1   0.0000
  2677 C6      14.1233   9.7189  28.7354   C         1 RES1   0.0000
  2678 C6      30.4995   7.3716  28.7354   C         1 RES1   0.0000
  2679 C6      24.3442  22.7275  28.7354   C         1 RES1   0.0000
  2680 C2      17.8119   6.0749  29.2204   C         1 RES1   0.0000
  2681 C2      31.8110  12.3880  29.2204   C         1 RES1   0.0000
  2682 C2      19.3441  21.3551  29.2204   C         1 RES1   0.0000
  2683 C5      16.6142   5.6807  29.7910   C         1 RES1   0.0000
  2684 C5      32.7513  11.5479  29.7910   C         1 RES1   0.0000
  2685 C5      19.6016  22.5894  29.7910   C         1 RES1   0.0000
  2686 N       19.1165   5.9853  29.7106   N         1 RES1   0.0000
  2687 N       31.2363  13.5627  29.7106   N         1 RES1   0.0000
  2688 N       18.6142  20.2700  29.7106   N         1 RES1   0.0000
  2689 H1      16.1624  27.9450   7.9656   H         1 RES1   0.0000
  2690 C5      13.8440  24.5823   9.5450   C         1 RES1   0.0000
  2691 H5      13.4957  24.8153  10.3742   H         1 RES1   0.0000
  2692 C6      13.6072  23.3520   8.9902   C         1 RES1   0.0000
  2693 H6      13.0911  22.7368   9.4583   H         1 RES1   0.0000
  2694 H6      13.9428  22.1455   7.3745   H         1 RES1   0.0000
  2695 C2      16.6716  27.1068  12.8143   C         1 RES1   0.0000
  2696 C5      17.8693  27.5010  12.2436   C         1 RES1   0.0000
  2697 H5      17.9004  27.8972  11.4019   H         1 RES1   0.0000
  2698 C1      11.6025  27.7319  10.4073   C         1 RES1   0.0000
  2699 H1      11.6566  27.1805   9.6617   H         1 RES1   0.0000
  2700 C2      12.1888  28.9384  12.0419   C         1 RES1   0.0000
  2701 C5      12.8497  29.6611  13.0822   C         1 RES1   0.0000
  2702 H5      13.7750  29.6552  13.1500   H         1 RES1   0.0000
  2703 C2      14.8440  30.4714   9.0375   C         1 RES1   0.0000
  2704 C5      13.8083  30.1230   8.0948   C         1 RES1   0.0000
  2705 H5      13.3578  29.3107   8.1421   H         1 RES1   0.0000
  2706 C6      12.0957  30.3580  13.9697   C         1 RES1   0.0000
  2707 H6      12.5244  30.8417  14.6380   H         1 RES1   0.0000
  2708 C6      13.5210  31.0667   7.1065   C         1 RES1   0.0000
  2709 H6      12.8531  30.8935   6.4838   H         1 RES1   0.0000
  2710 N       15.0176  26.7703   9.0895   N         1 RES1   0.0000
  2711 N       15.3521  29.7388  10.1283   N         1 RES1   0.0000
  2712 N       15.3670  27.1964  12.3240   N         1 RES1   0.0000
  2713 N       12.6842  28.1600  11.0252   N         1 RES1   0.0000
  2714 Zn      14.6363  27.9484  10.6390   Z         1 RES1   0.0000
  2715 C1       8.3680  26.4591  12.9840   C         1 RES1   0.0000
  2716 H1       9.2933  26.5208  13.0518   H         1 RES1   0.0000
  2717 C2       6.3680  26.6064  12.1943   C         1 RES1   0.0000
  2718 C5       5.2220  26.8473  11.4723   C         1 RES1   0.0000
  2719 H5       5.2495  27.2654  10.6432   H         1 RES1   0.0000
  2720 C6       4.0380  26.4372  12.0272   C         1 RES1   0.0000
  2721 H6       3.2472  26.5766  11.5590   H         1 RES1   0.0000
  2722 C6       3.9840  25.8101  13.2992   C         1 RES1   0.0000
  2723 H6       3.1610  25.5433  13.6429   H         1 RES1   0.0000
  2724 H5      10.1209  24.9918   9.6154   H         1 RES1   0.0000
  2725 C1       6.8289  30.3633  10.6101   C         1 RES1   0.0000
  2726 H1       6.3783  30.0407  11.3557   H         1 RES1   0.0000
  2727 C2       8.1668  30.4588   8.9755   C         1 RES1   0.0000
  2728 C5       9.1232  30.2478   7.9351   C         1 RES1   0.0000
  2729 H5       9.5807  29.4435   7.8673   H         1 RES1   0.0000
  2730 C2      10.8221  28.9258  11.9799   C         1 RES1   0.0000
  2731 C5      10.0025  29.6485  12.9225   C         1 RES1   0.0000
  2732 H5       9.0738  29.6326  12.8752   H         1 RES1   0.0000
  2733 C6       9.3496  31.2492   7.0476   C         1 RES1   0.0000
  2734 H6       9.9830  31.1198   6.3793   H         1 RES1   0.0000
  2735 C6      10.6761  30.3692  13.9108   C         1 RES1   0.0000
  2736 H6      10.1922  30.8610  14.5335   H         1 RES1   0.0000
  2737 N        7.7036  26.9250  11.9279   N         1 RES1   0.0000
  2738 N       10.4416  28.1195  10.8891   N         1 RES1   0.0000
  2739 N        7.7404  29.6406   9.9922   N         1 RES1   0.0000
  2740 Zn       8.5332  27.8442  10.3784   Z         1 RES1   0.0000
  2741 C1      18.8797  33.8354  12.9840   C         1 RES1   0.0000
  2742 H1      18.3636  34.6059  13.0518   H         1 RES1   0.0000
  2743 C2      19.7521  32.0297  12.1943   C         1 RES1   0.0000
  2744 C5      20.1165  30.9167  11.4723   C         1 RES1   0.0000
  2745 H5      19.7407  30.7316  10.6432   H         1 RES1   0.0000
  2746 C6      21.0637  30.0965  12.0272   C         1 RES1   0.0000
  2747 H6      21.3384  29.3419  11.5590   H         1 RES1   0.0000
  2748 C6      21.6338  30.3633  13.2992   C         1 RES1   0.0000
  2749 H6      22.2763  29.7839  13.6429   H         1 RES1   0.0000
  2750 H5      19.2740  36.0871   9.6154   H         1 RES1   0.0000
  2751 C1      16.2682  30.5504  10.6101   C         1 RES1   0.0000
  2752 H1      16.7728  30.3215  11.3557   H         1 RES1   0.0000
  2753 C2      15.5164  31.6613   8.9755   C         1 RES1   0.0000
  2754 C5      15.2210  32.5951   7.9351   C         1 RES1   0.0000
  2755 H5      15.6888  33.3934   7.8673   H         1 RES1   0.0000
  2756 C2      15.5164  34.7273  11.9799   C         1 RES1   0.0000
  2757 C5      15.3003  33.6562  12.9225   C         1 RES1   0.0000
  2758 H5      15.7785  32.8599  12.8752   H         1 RES1   0.0000
  2759 C6      14.2405  32.2905   7.0476   C         1 RES1   0.0000
  2760 H6      14.0359  32.9037   6.3793   H         1 RES1   0.0000
  2761 C6      14.3394  33.8792  13.9108   C         1 RES1   0.0000
  2762 H6      14.1555  33.2142  14.5335   H         1 RES1   0.0000
  2763 N       18.8085  33.0271  11.9279   N         1 RES1   0.0000
  2764 N       16.4050  34.8010  10.8891   N         1 RES1   0.0000
  2765 N       16.4383  31.7012   9.9922   N         1 RES1   0.0000
  2766 Zn      17.5976  33.2859  10.3784   Z         1 RES1   0.0000
  2767 C5      17.7670  39.5161   9.5450   C         1 RES1   0.0000
  2768 H5      17.7395  39.0980  10.3742   H         1 RES1   0.0000
  2769 H6      19.7418  39.7869   9.4583   H         1 RES1   0.0000
  2770 C1      16.1601  36.0002  10.4073   C         1 RES1   0.0000
  2771 H1      16.6107  36.3227   9.6617   H         1 RES1   0.0000
  2772 C2      14.8222  35.9046  12.0419   C         1 RES1   0.0000
  2773 C5      13.8658  36.1157  13.0822   C         1 RES1   0.0000
  2774 H5      13.4083  36.9200  13.1500   H         1 RES1   0.0000
  2775 C2      12.1669  37.4376   9.0375   C         1 RES1   0.0000
  2776 C5      12.9865  36.7149   8.0948   C         1 RES1   0.0000
  2777 H5      13.9152  36.7308   8.1421   H         1 RES1   0.0000
  2778 C6      13.6394  35.1142  13.9697   C         1 RES1   0.0000
  2779 H6      13.0060  35.2436  14.6380   H         1 RES1   0.0000
  2780 C6      12.3129  35.9942   7.1065   C         1 RES1   0.0000
  2781 H6      12.7968  35.5025   6.4838   H         1 RES1   0.0000
  2782 N       15.2854  39.4385   9.0895   N         1 RES1   0.0000
  2783 N       12.5474  38.2439  10.1283   N         1 RES1   0.0000
  2784 N       14.7417  39.5281  12.3240   N         1 RES1   0.0000
  2785 N       15.2486  36.7229  11.0252   N         1 RES1   0.0000
  2786 Zn      14.4558  38.5193  10.6390   Z         1 RES1   0.0000
  2787 H1       4.6254  31.7576   7.9656   H         1 RES1   0.0000
  2788 C5       2.8725  35.4467   9.5450   C         1 RES1   0.0000
  2789 H5       3.2483  35.6319  10.3742   H         1 RES1   0.0000
  2790 C6       1.9253  36.2670   8.9902   C         1 RES1   0.0000
  2791 H6       1.6506  37.0215   9.4583   H         1 RES1   0.0000
  2792 H6       0.7127  36.5795   7.3745   H         1 RES1   0.0000
  2793 C2       3.6449  31.7357  12.8143   C         1 RES1   0.0000
  2794 C5       3.3874  30.5013  12.2436   C         1 RES1   0.0000
  2795 H5       3.7150  30.2763  11.4019   H         1 RES1   0.0000
  2796 C1       6.7208  35.8130  10.4073   C         1 RES1   0.0000
  2797 H1       6.2162  36.0420   9.6617   H         1 RES1   0.0000
  2798 C2       7.4726  34.7021  12.0419   C         1 RES1   0.0000
  2799 C5       7.7680  33.7684  13.0822   C         1 RES1   0.0000
  2800 H5       7.3002  32.9700  13.1500   H         1 RES1   0.0000
  2801 C2       7.4726  31.6361   9.0375   C         1 RES1   0.0000
  2802 C5       7.6887  32.7072   8.0948   C         1 RES1   0.0000
  2803 H5       7.2105  33.5036   8.1421   H         1 RES1   0.0000
  2804 C6       8.7485  34.0730  13.9697   C         1 RES1   0.0000
  2805 H6       8.9531  33.4598  14.6380   H         1 RES1   0.0000
  2806 C6       8.6496  32.4842   7.1065   C         1 RES1   0.0000
  2807 H6       8.8335  33.1492   6.4838   H         1 RES1   0.0000
  2808 N        4.1805  33.3363   9.0895   N         1 RES1   0.0000
  2809 N        6.5840  31.5625  10.1283   N         1 RES1   0.0000
  2810 N        4.3748  32.8207  12.3240   N         1 RES1   0.0000
  2811 N        6.5507  34.6623  11.0252   N         1 RES1   0.0000
  2812 Zn       5.3914  33.0775  10.6390   Z         1 RES1   0.0000
  2813 C1       7.2358  39.2507  12.9840   C         1 RES1   0.0000
  2814 H1       6.8266  38.4185  13.0518   H         1 RES1   0.0000
  2815 H5       5.0886  38.4662   9.6154   H         1 RES1   0.0000
  2816 C1      11.3865  38.6315  10.6101   C         1 RES1   0.0000
  2817 H1      11.3324  39.1830  11.3557   H         1 RES1   0.0000
  2818 C2      10.8002  37.4250   8.9755   C         1 RES1   0.0000
  2819 C5      10.1393  36.7023   7.9351   C         1 RES1   0.0000
  2820 H5       9.2140  36.7083   7.8673   H         1 RES1   0.0000
  2821 C2       8.1450  35.8920  11.9799   C         1 RES1   0.0000
  2822 C5       9.1807  36.2404  12.9225   C         1 RES1   0.0000
  2823 H5       9.6312  37.0527  12.8752   H         1 RES1   0.0000
  2824 C6      10.8933  36.0055   7.0476   C         1 RES1   0.0000
  2825 H6      10.4646  35.5217   6.3793   H         1 RES1   0.0000
  2826 C6       9.4680  35.2967  13.9108   C         1 RES1   0.0000
  2827 H6      10.1359  35.4699  14.5335   H         1 RES1   0.0000
  2828 N        7.9714  39.5931  11.9279   N         1 RES1   0.0000
  2829 N        7.6369  36.6247  10.8891   N         1 RES1   0.0000
  2830 N       10.3048  38.2034   9.9922   N         1 RES1   0.0000
  2831 Zn       8.3527  38.4151  10.3784   Z         1 RES1   0.0000
  2832 C1       4.2587  33.7491  13.2877   C         1 RES1   0.0000
  2833 C1      14.6210  26.6316  13.2877   C         1 RES1   0.0000
  2834 C1      15.6038  39.1644  13.2877   C         1 RES1   0.0000
  2835 C2       3.1311  32.0907  14.0774   C         1 RES1   0.0000
  2836 C2      16.6210  26.4843  14.0774   C         1 RES1   0.0000
  2837 C6       2.6288  29.6280  12.9724   C         1 RES1   0.0000
  2838 C6      19.0050  27.2807  12.9724   C         1 RES1   0.0000
  2839 C2       6.3174  25.9839  13.4574   C         1 RES1   0.0000
  2840 C2      20.3165  32.2971  13.4574   C         1 RES1   0.0000
  2841 C5       5.1197  25.5897  14.0280   C         1 RES1   0.0000
  2842 C5      21.2568  31.4569  14.0280   C         1 RES1   0.0000
  2843 N        7.6220  25.8943  13.9476   N         1 RES1   0.0000
  2844 N       19.7418  33.4717  13.9476   N         1 RES1   0.0000
  2845 H1      16.1624  27.9450  23.7286   H         1 RES1   0.0000
  2846 C5      13.8440  24.5823  25.3080   C         1 RES1   0.0000
  2847 H5      13.4957  24.8153  26.1372   H         1 RES1   0.0000
  2848 C6      13.6072  23.3520  24.7532   C         1 RES1   0.0000
  2849 H6      13.0911  22.7368  25.2213   H         1 RES1   0.0000
  2850 H6      13.9428  22.1455  23.1375   H         1 RES1   0.0000
  2851 C2      16.6716  27.1068  28.5773   C         1 RES1   0.0000
  2852 C5      17.8693  27.5010  28.0066   C         1 RES1   0.0000
  2853 H5      17.9004  27.8972  27.1649   H         1 RES1   0.0000
  2854 C1      11.6025  27.7319  26.1703   C         1 RES1   0.0000
  2855 H1      11.6566  27.1805  25.4247   H         1 RES1   0.0000
  2856 C2      12.1888  28.9384  27.8049   C         1 RES1   0.0000
  2857 C5      12.8497  29.6611  28.8452   C         1 RES1   0.0000
  2858 H5      13.7750  29.6552  28.9130   H         1 RES1   0.0000
  2859 C2      14.8440  30.4714  24.8005   C         1 RES1   0.0000
  2860 C5      13.8083  30.1230  23.8578   C         1 RES1   0.0000
  2861 H5      13.3578  29.3107  23.9051   H         1 RES1   0.0000
  2862 C6      12.0957  30.3580  29.7327   C         1 RES1   0.0000
  2863 H6      12.5244  30.8417  30.4010   H         1 RES1   0.0000
  2864 C6      13.5210  31.0667  22.8695   C         1 RES1   0.0000
  2865 H6      12.8531  30.8935  22.2468   H         1 RES1   0.0000
  2866 N       15.0176  26.7703  24.8525   N         1 RES1   0.0000
  2867 N       15.3521  29.7388  25.8913   N         1 RES1   0.0000
  2868 N       15.3670  27.1964  28.0870   N         1 RES1   0.0000
  2869 N       12.6842  28.1600  26.7882   N         1 RES1   0.0000
  2870 Zn      14.6363  27.9484  26.4020   Z         1 RES1   0.0000
  2871 C1       8.3680  26.4591  28.7470   C         1 RES1   0.0000
  2872 H1       9.2933  26.5208  28.8148   H         1 RES1   0.0000
  2873 C2       6.3680  26.6064  27.9573   C         1 RES1   0.0000
  2874 C5       5.2220  26.8473  27.2353   C         1 RES1   0.0000
  2875 H5       5.2495  27.2654  26.4062   H         1 RES1   0.0000
  2876 C6       4.0380  26.4372  27.7902   C         1 RES1   0.0000
  2877 H6       3.2472  26.5766  27.3220   H         1 RES1   0.0000
  2878 C6       3.9840  25.8101  29.0622   C         1 RES1   0.0000
  2879 H6       3.1610  25.5433  29.4059   H         1 RES1   0.0000
  2880 H5      10.1209  24.9918  25.3784   H         1 RES1   0.0000
  2881 C1       6.8289  30.3633  26.3731   C         1 RES1   0.0000
  2882 H1       6.3783  30.0407  27.1187   H         1 RES1   0.0000
  2883 C2       8.1668  30.4588  24.7385   C         1 RES1   0.0000
  2884 C5       9.1232  30.2478  23.6981   C         1 RES1   0.0000
  2885 H5       9.5807  29.4435  23.6303   H         1 RES1   0.0000
  2886 C2      10.8221  28.9258  27.7429   C         1 RES1   0.0000
  2887 C5      10.0025  29.6485  28.6855   C         1 RES1   0.0000
  2888 H5       9.0738  29.6326  28.6382   H         1 RES1   0.0000
  2889 C6       9.3496  31.2492  22.8106   C         1 RES1   0.0000
  2890 H6       9.9830  31.1198  22.1423   H         1 RES1   0.0000
  2891 C6      10.6761  30.3692  29.6738   C         1 RES1   0.0000
  2892 H6      10.1922  30.8610  30.2965   H         1 RES1   0.0000
  2893 N        7.7036  26.9250  27.6909   N         1 RES1   0.0000
  2894 N       10.4416  28.1195  26.6521   N         1 RES1   0.0000
  2895 N        7.7404  29.6406  25.7552   N         1 RES1   0.0000
  2896 Zn       8.5332  27.8442  26.1414   Z         1 RES1   0.0000
  2897 C1      18.8797  33.8354  28.7470   C         1 RES1   0.0000
  2898 H1      18.3636  34.6059  28.8148   H         1 RES1   0.0000
  2899 C2      19.7521  32.0297  27.9573   C         1 RES1   0.0000
  2900 C5      20.1165  30.9167  27.2353   C         1 RES1   0.0000
  2901 H5      19.7407  30.7316  26.4062   H         1 RES1   0.0000
  2902 C6      21.0637  30.0965  27.7902   C         1 RES1   0.0000
  2903 H6      21.3384  29.3419  27.3220   H         1 RES1   0.0000
  2904 C6      21.6338  30.3633  29.0622   C         1 RES1   0.0000
  2905 H6      22.2763  29.7839  29.4059   H         1 RES1   0.0000
  2906 H5      19.2740  36.0871  25.3784   H         1 RES1   0.0000
  2907 C1      16.2682  30.5504  26.3731   C         1 RES1   0.0000
  2908 H1      16.7728  30.3215  27.1187   H         1 RES1   0.0000
  2909 C2      15.5164  31.6613  24.7385   C         1 RES1   0.0000
  2910 C5      15.2210  32.5951  23.6981   C         1 RES1   0.0000
  2911 H5      15.6888  33.3934  23.6303   H         1 RES1   0.0000
  2912 C2      15.5164  34.7273  27.7429   C         1 RES1   0.0000
  2913 C5      15.3003  33.6562  28.6855   C         1 RES1   0.0000
  2914 H5      15.7785  32.8599  28.6382   H         1 RES1   0.0000
  2915 C6      14.2405  32.2905  22.8106   C         1 RES1   0.0000
  2916 H6      14.0359  32.9037  22.1423   H         1 RES1   0.0000
  2917 C6      14.3394  33.8792  29.6738   C         1 RES1   0.0000
  2918 H6      14.1555  33.2142  30.2965   H         1 RES1   0.0000
  2919 N       18.8085  33.0271  27.6909   N         1 RES1   0.0000
  2920 N       16.4050  34.8010  26.6521   N         1 RES1   0.0000
  2921 N       16.4383  31.7012  25.7552   N         1 RES1   0.0000
  2922 Zn      17.5976  33.2859  26.1414   Z         1 RES1   0.0000
  2923 C5      17.7670  39.5161  25.3080   C         1 RES1   0.0000
  2924 H5      17.7395  39.0980  26.1372   H         1 RES1   0.0000
  2925 H6      19.7418  39.7869  25.2213   H         1 RES1   0.0000
  2926 C1      16.1601  36.0002  26.1703   C         1 RES1   0.0000
  2927 H1      16.6107  36.3227  25.4247   H         1 RES1   0.0000
  2928 C2      14.8222  35.9046  27.8049   C         1 RES1   0.0000
  2929 C5      13.8658  36.1157  28.8452   C         1 RES1   0.0000
  2930 H5      13.4083  36.9200  28.9130   H         1 RES1   0.0000
  2931 C2      12.1669  37.4376  24.8005   C         1 RES1   0.0000
  2932 C5      12.9865  36.7149  23.8578   C         1 RES1   0.0000
  2933 H5      13.9152  36.7308  23.9051   H         1 RES1   0.0000
  2934 C6      13.6394  35.1142  29.7327   C         1 RES1   0.0000
  2935 H6      13.0060  35.2436  30.4010   H         1 RES1   0.0000
  2936 C6      12.3129  35.9942  22.8695   C         1 RES1   0.0000
  2937 H6      12.7968  35.5025  22.2468   H         1 RES1   0.0000
  2938 N       15.2854  39.4385  24.8525   N         1 RES1   0.0000
  2939 N       12.5474  38.2439  25.8913   N         1 RES1   0.0000
  2940 N       14.7417  39.5281  28.0870   N         1 RES1   0.0000
  2941 N       15.2486  36.7229  26.7882   N         1 RES1   0.0000
  2942 Zn      14.4558  38.5193  26.4020   Z         1 RES1   0.0000
  2943 H1       4.6254  31.7576  23.7286   H         1 RES1   0.0000
  2944 C5       2.8725  35.4467  25.3080   C         1 RES1   0.0000
  2945 H5       3.2483  35.6319  26.1372   H         1 RES1   0.0000
  2946 C6       1.9253  36.2670  24.7532   C         1 RES1   0.0000
  2947 H6       1.6506  37.0215  25.2213   H         1 RES1   0.0000
  2948 H6       0.7127  36.5795  23.1375   H         1 RES1   0.0000
  2949 C2       3.6449  31.7357  28.5773   C         1 RES1   0.0000
  2950 C5       3.3874  30.5013  28.0066   C         1 RES1   0.0000
  2951 H5       3.7150  30.2763  27.1649   H         1 RES1   0.0000
  2952 C1       6.7208  35.8130  26.1703   C         1 RES1   0.0000
  2953 H1       6.2162  36.0420  25.4247   H         1 RES1   0.0000
  2954 C2       7.4726  34.7021  27.8049   C         1 RES1   0.0000
  2955 C5       7.7680  33.7684  28.8452   C         1 RES1   0.0000
  2956 H5       7.3002  32.9700  28.9130   H         1 RES1   0.0000
  2957 C2       7.4726  31.6361  24.8005   C         1 RES1   0.0000
  2958 C5       7.6887  32.7072  23.8578   C         1 RES1   0.0000
  2959 H5       7.2105  33.5036  23.9051   H         1 RES1   0.0000
  2960 C6       8.7485  34.0730  29.7327   C         1 RES1   0.0000
  2961 H6       8.9531  33.4598  30.4010   H         1 RES1   0.0000
  2962 C6       8.6496  32.4842  22.8695   C         1 RES1   0.0000
  2963 H6       8.8335  33.1492  22.2468   H         1 RES1   0.0000
  2964 N        4.1805  33.3363  24.8525   N         1 RES1   0.0000
  2965 N        6.5840  31.5625  25.8913   N         1 RES1   0.0000
  2966 N        4.3748  32.8207  28.0870   N         1 RES1   0.0000
  2967 N        6.5507  34.6623  26.7882   N         1 RES1   0.0000
  2968 Zn       5.3914  33.0775  26.4020   Z         1 RES1   0.0000
  2969 C1       7.2358  39.2507  28.7470   C         1 RES1   0.0000
  2970 H1       6.8266  38.4185  28.8148   H         1 RES1   0.0000
  2971 H5       5.0886  38.4662  25.3784   H         1 RES1   0.0000
  2972 C1      11.3865  38.6315  26.3731   C         1 RES1   0.0000
  2973 H1      11.3324  39.1830  27.1187   H         1 RES1   0.0000
  2974 C2      10.8002  37.4250  24.7385   C         1 RES1   0.0000
  2975 C5      10.1393  36.7023  23.6981   C         1 RES1   0.0000
  2976 H5       9.2140  36.7083  23.6303   H         1 RES1   0.0000
  2977 C2       8.1450  35.8920  27.7429   C         1 RES1   0.0000
  2978 C5       9.1807  36.2404  28.6855   C         1 RES1   0.0000
  2979 H5       9.6312  37.0527  28.6382   H         1 RES1   0.0000
  2980 C6      10.8933  36.0055  22.8106   C         1 RES1   0.0000
  2981 H6      10.4646  35.5217  22.1423   H         1 RES1   0.0000
  2982 C6       9.4680  35.2967  29.6738   C         1 RES1   0.0000
  2983 H6      10.1359  35.4699  30.2965   H         1 RES1   0.0000
  2984 N        7.9714  39.5931  27.6909   N         1 RES1   0.0000
  2985 N        7.6369  36.6247  26.6521   N         1 RES1   0.0000
  2986 N       10.3048  38.2034  25.7552   N         1 RES1   0.0000
  2987 Zn       8.3527  38.4151  26.1414   Z         1 RES1   0.0000
  2988 C1       4.2587  33.7491  29.0507   C         1 RES1   0.0000
  2989 C1      14.6210  26.6316  29.0507   C         1 RES1   0.0000
  2990 C1      15.6038  39.1644  29.0507   C         1 RES1   0.0000
  2991 C2       3.1311  32.0907  29.8404   C         1 RES1   0.0000
  2992 C2      16.6210  26.4843  29.8404   C         1 RES1   0.0000
  2993 C6       2.6288  29.6280  28.7354   C         1 RES1   0.0000
  2994 C6      19.0050  27.2807  28.7354   C         1 RES1   0.0000
  2995 C2       6.3174  25.9839  29.2204   C         1 RES1   0.0000
  2996 C2      20.3165  32.2971  29.2204   C         1 RES1   0.0000
  2997 C5       5.1197  25.5897  29.7910   C         1 RES1   0.0000
  2998 C5      21.2568  31.4569  29.7910   C         1 RES1   0.0000
  2999 N        7.6220  25.8943  29.7106   N         1 RES1   0.0000
  3000 N       19.7418  33.4717  29.7106   N         1 RES1   0.0000
  3001 C2      40.8515   6.6974  12.1943   C         1 RES1   0.0000
  3002 C5      39.7055   6.9383  11.4723   C         1 RES1   0.0000
  3003 H5      39.7330   7.3564  10.6432   H         1 RES1   0.0000
  3004 C6      38.5215   6.5281  12.0272   C         1 RES1   0.0000
  3005 H6      37.7307   6.6675  11.5590   H         1 RES1   0.0000
  3006 C6      38.4675   5.9010  13.2992   C         1 RES1   0.0000
  3007 H6      37.6445   5.6342  13.6429   H         1 RES1   0.0000
  3008 H1      39.1089  11.8485   7.9656   H         1 RES1   0.0000
  3009 C6      36.4088  16.3579   8.9902   C         1 RES1   0.0000
  3010 H6      35.1962  16.6705   7.3745   H         1 RES1   0.0000
  3011 C2      38.1284  11.8266  12.8143   C         1 RES1   0.0000
  3012 C5      37.8709  10.5922  12.2436   C         1 RES1   0.0000
  3013 H5      38.1985  10.3673  11.4019   H         1 RES1   0.0000
  3014 C2      37.6146  12.1816  14.0774   C         1 RES1   0.0000
  3015 C6      37.1123   9.7189  12.9724   C         1 RES1   0.0000
  3016 C2      40.8009   6.0749  13.4574   C         1 RES1   0.0000
  3017 C5      39.6032   5.6807  14.0280   C         1 RES1   0.0000
  3018 N       42.1055   5.9853  13.9476   N         1 RES1   0.0000
  3019 C2      40.8515   6.6974  27.9573   C         1 RES1   0.0000
  3020 C5      39.7055   6.9383  27.2353   C         1 RES1   0.0000
  3021 H5      39.7330   7.3564  26.4062   H         1 RES1   0.0000
  3022 C6      38.5215   6.5281  27.7902   C         1 RES1   0.0000
  3023 H6      37.7307   6.6675  27.3220   H         1 RES1   0.0000
  3024 C6      38.4675   5.9010  29.0622   C         1 RES1   0.0000
  3025 H6      37.6445   5.6342  29.4059   H         1 RES1   0.0000
  3026 H1      39.1089  11.8485  23.7286   H         1 RES1   0.0000
  3027 C6      36.4088  16.3579  24.7532   C         1 RES1   0.0000
  3028 H6      35.1962  16.6705  23.1375   H         1 RES1   0.0000
  3029 C2      38.1284  11.8266  28.5773   C         1 RES1   0.0000
  3030 C5      37.8709  10.5922  28.0066   C         1 RES1   0.0000
  3031 H5      38.1985  10.3673  27.1649   H         1 RES1   0.0000
  3032 C2      37.6146  12.1816  29.8404   C         1 RES1   0.0000
  3033 C6      37.1123   9.7189  28.7354   C         1 RES1   0.0000
  3034 C2      40.8009   6.0749  29.2204   C         1 RES1   0.0000
  3035 C5      39.6032   5.6807  29.7910   C         1 RES1   0.0000
  3036 N       42.1055   5.9853  29.7106   N         1 RES1   0.0000
  3037 C2      29.3570  26.6064  12.1943   C         1 RES1   0.0000
  3038 C5      28.2110  26.8473  11.4723   C         1 RES1   0.0000
  3039 H5      28.2385  27.2654  10.6432   H         1 RES1   0.0000
  3040 C6      27.0270  26.4372  12.0272   C         1 RES1   0.0000
  3041 H6      26.2362  26.5766  11.5590   H         1 RES1   0.0000
  3042 C6      26.9730  25.8101  13.2992   C         1 RES1   0.0000
  3043 H6      26.1500  25.5433  13.6429   H         1 RES1   0.0000
  3044 H1      27.6144  31.7576   7.9656   H         1 RES1   0.0000
  3045 C6      24.9143  36.2670   8.9902   C         1 RES1   0.0000
  3046 H6      23.7017  36.5795   7.3745   H         1 RES1   0.0000
  3047 C2      26.6339  31.7357  12.8143   C         1 RES1   0.0000
  3048 C5      26.3764  30.5013  12.2436   C         1 RES1   0.0000
  3049 H5      26.7040  30.2763  11.4019   H         1 RES1   0.0000
  3050 C2      26.1201  32.0907  14.0774   C         1 RES1   0.0000
  3051 C6      25.6178  29.6280  12.9724   C         1 RES1   0.0000
  3052 C2      29.3064  25.9839  13.4574   C         1 RES1   0.0000
  3053 C5      28.1087  25.5897  14.0280   C         1 RES1   0.0000
  3054 N       30.6110  25.8943  13.9476   N         1 RES1   0.0000
  3055 C2      29.3570  26.6064  27.9573   C         1 RES1   0.0000
  3056 C5      28.2110  26.8473  27.2353   C         1 RES1   0.0000
  3057 H5      28.2385  27.2654  26.4062   H         1 RES1   0.0000
  3058 C6      27.0270  26.4372  27.7902   C         1 RES1   0.0000
  3059 H6      26.2362  26.5766  27.3220   H         1 RES1   0.0000
  3060 C6      26.9730  25.8101  29.0622   C         1 RES1   0.0000
  3061 H6      26.1500  25.5433  29.4059   H         1 RES1   0.0000
  3062 H1      27.6144  31.7576  23.7286   H         1 RES1   0.0000
  3063 C6      24.9143  36.2670  24.7532   C         1 RES1   0.0000
  3064 H6      23.7017  36.5795  23.1375   H         1 RES1   0.0000
  3065 C2      26.6339  31.7357  28.5773   C         1 RES1   0.0000
  3066 C5      26.3764  30.5013  28.0066   C         1 RES1   0.0000
  3067 H5      26.7040  30.2763  27.1649   H         1 RES1   0.0000
  3068 C2      26.1201  32.0907  29.8404   C         1 RES1   0.0000
  3069 C6      25.6178  29.6280  28.7354   C         1 RES1   0.0000
  3070 C2      29.3064  25.9839  29.2204   C         1 RES1   0.0000
  3071 C5      28.1087  25.5897  29.7910   C         1 RES1   0.0000
  3072 N       30.6110  25.8943  29.7106   N         1 RES1   0.0000
  3073 H1       6.8691   1.4241   2.5431   H         1 RES1   0.0000
  3074 C2       4.0219   1.5456   1.4712   C         1 RES1   0.0000
  3075 C5       3.8058   0.4745   2.4138   C         1 RES1   0.0000
  3076 C6       2.8449   0.6974   3.4022   C         1 RES1   0.0000
  3077 H6       2.6610   0.0325   4.0248   H         1 RES1   0.0000
  3078 N        4.9105   1.6192   0.3804   N         1 RES1   0.0000
  3079 H5       1.3736   8.1899   0.8932   H         1 RES1   0.0000
  3080 C2       3.3277   2.7229   1.5332   C         1 RES1   0.0000
  3081 C5       2.3713   2.9339   2.5736   C         1 RES1   0.0000
  3082 H5       1.9138   3.7382   2.6414   H         1 RES1   0.0000
  3083 C6       2.1449   1.9325   3.4610   C         1 RES1   0.0000
  3084 H6       1.5115   2.0619   4.1294   H         1 RES1   0.0000
  3085 N        3.7541   3.5411   0.5165   N         1 RES1   0.0000
  3086 Zn       2.9613   5.3375   0.1303   Z         1 RES1   0.0000
  3087 C5      -2.3495   8.5993   0.9636   C         1 RES1   0.0000
  3088 H5      -2.0012   8.3664   0.1345   H         1 RES1   0.0000
  3089 C6      -2.1127   9.8297   1.5185   C         1 RES1   0.0000
  3090 H6      -1.5966  10.4449   1.0503   H         1 RES1   0.0000
  3091 H6      -2.4483  11.0362   3.1342   H         1 RES1   0.0000
  3092 C1      -0.1080   5.4497   0.1014   C         1 RES1   0.0000
  3093 H1      -0.1621   6.0012   0.8470   H         1 RES1   0.0000
  3094 H5      -1.8633   3.8709   2.3666   H         1 RES1   0.0000
  3095 N       -3.5231   6.4113   1.4192   N         1 RES1   0.0000
  3096 H1       6.8691   1.4241  18.3061   H         1 RES1   0.0000
  3097 H5       7.7795   2.9054  14.8698   H         1 RES1   0.0000
  3098 H5       4.1943   0.2117  13.1216   H         1 RES1   0.0000
  3099 C2       4.0219   1.5456  17.2342   C         1 RES1   0.0000
  3100 C5       3.8058   0.4745  18.1768   C         1 RES1   0.0000
  3101 C6       2.8449   0.6974  19.1652   C         1 RES1   0.0000
  3102 H6       2.6610   0.0325  19.7878   H         1 RES1   0.0000
  3103 N        4.9105   1.6192  16.1434   N         1 RES1   0.0000
  3104 Zn       6.1031   0.1041  15.6327   Z         1 RES1   0.0000
  3105 H1       2.2012   6.6609  13.2199   H         1 RES1   0.0000
  3106 C5       6.2725   6.3344  14.7994   C         1 RES1   0.0000
  3107 H5       6.2450   5.9163  15.6285   H         1 RES1   0.0000
  3108 C6       7.4565   6.7445  14.2445   C         1 RES1   0.0000
  3109 H6       8.2473   6.6051  14.7127   H         1 RES1   0.0000
  3110 H6       8.3335   7.6384  12.6288   H         1 RES1   0.0000
  3111 H5       1.3736   8.1899  16.6562   H         1 RES1   0.0000
  3112 C1       4.6656   2.8184  15.6616   C         1 RES1   0.0000
  3113 H1       5.1162   3.1409  14.9160   H         1 RES1   0.0000
  3114 C2       3.3277   2.7229  17.2962   C         1 RES1   0.0000
  3115 C5       2.3713   2.9339  18.3366   C         1 RES1   0.0000
  3116 H5       1.9138   3.7382  18.4044   H         1 RES1   0.0000
  3117 C2       0.6724   4.2559  14.2918   C         1 RES1   0.0000
  3118 C5       1.4920   3.5332  13.3492   C         1 RES1   0.0000
  3119 H5       2.4207   3.5491  13.3964   H         1 RES1   0.0000
  3120 C6       2.1449   1.9325  19.2240   C         1 RES1   0.0000
  3121 H6       1.5115   2.0619  19.8924   H         1 RES1   0.0000
  3122 C6       0.8184   2.8124  12.3608   C         1 RES1   0.0000
  3123 H6       1.3023   2.3207  11.7382   H         1 RES1   0.0000
  3124 N        3.7909   6.2567  14.3438   N         1 RES1   0.0000
  3125 N        1.0529   5.0622  15.3826   N         1 RES1   0.0000
  3126 N        3.7541   3.5411  16.2795   N         1 RES1   0.0000
  3127 Zn       2.9613   5.3375  15.8933   Z         1 RES1   0.0000
  3128 C5      -2.3495   8.5993  16.7266   C         1 RES1   0.0000
  3129 H5      -2.0012   8.3664  15.8975   H         1 RES1   0.0000
  3130 C6      -2.1127   9.8297  17.2815   C         1 RES1   0.0000
  3131 H6      -1.5966  10.4449  16.8133   H         1 RES1   0.0000
  3132 H6      -2.4483  11.0362  18.8972   H         1 RES1   0.0000
  3133 C1      -0.1080   5.4497  15.8644   C         1 RES1   0.0000
  3134 H1      -0.1621   6.0012  16.6100   H         1 RES1   0.0000
  3135 C2      -0.6943   4.2432  14.2298   C         1 RES1   0.0000
  3136 C5      -1.3552   3.5205  13.1894   C         1 RES1   0.0000
  3137 H5      -1.8633   3.8709  18.1296   H         1 RES1   0.0000
  3138 C6      -0.6012   2.8237  12.3020   C         1 RES1   0.0000
  3139 H6      -1.0299   2.3399  11.6336   H         1 RES1   0.0000
  3140 N       -3.5231   6.4113  17.1822   N         1 RES1   0.0000
  3141 N       -1.1897   5.0217  15.2465   N         1 RES1   0.0000
  3142 H5       7.7795   2.9054  30.6328   H         1 RES1   0.0000
  3143 H5       4.1943   0.2117  28.8846   H         1 RES1   0.0000
  3144 Zn       6.1031   0.1041  31.3957   Z         1 RES1   0.0000
  3145 H1       2.2012   6.6609  28.9829   H         1 RES1   0.0000
  3146 C5       6.2725   6.3344  30.5624   C         1 RES1   0.0000
  3147 H5       6.2450   5.9163  31.3915   H         1 RES1   0.0000
  3148 C6       7.4565   6.7445  30.0075   C         1 RES1   0.0000
  3149 H6       8.2473   6.6051  30.4757   H         1 RES1   0.0000
  3150 H6       8.3335   7.6384  28.3918   H         1 RES1   0.0000
  3151 C1       4.6656   2.8184  31.4246   C         1 RES1   0.0000
  3152 H1       5.1162   3.1409  30.6790   H         1 RES1   0.0000
  3153 C2       0.6724   4.2559  30.0548   C         1 RES1   0.0000
  3154 C5       1.4920   3.5332  29.1122   C         1 RES1   0.0000
  3155 H5       2.4207   3.5491  29.1594   H         1 RES1   0.0000
  3156 C6       0.8184   2.8124  28.1238   C         1 RES1   0.0000
  3157 H6       1.3023   2.3207  27.5012   H         1 RES1   0.0000
  3158 N        3.7909   6.2567  30.1068   N         1 RES1   0.0000
  3159 N        1.0529   5.0622  31.1456   N         1 RES1   0.0000
  3160 C2      -0.6943   4.2432  29.9928   C         1 RES1   0.0000
  3161 C5      -1.3552   3.5205  28.9524   C         1 RES1   0.0000
  3162 C6      -0.6012   2.8237  28.0650   C         1 RES1   0.0000
  3163 H6      -1.0299   2.3399  27.3966   H         1 RES1   0.0000
  3164 N       -1.1897   5.0217  31.0095   N         1 RES1   0.0000
  3165 H5      -5.0886  14.6245   0.8932   H         1 RES1   0.0000
  3166 H5      -9.2140  16.3825   2.6414   H         1 RES1   0.0000
  3167 Zn      -8.3527  14.6757   0.1303   Z         1 RES1   0.0000
  3168 H1      -4.6254  21.3332   2.5431   H         1 RES1   0.0000
  3169 C5      -2.8725  17.6440   0.9636   C         1 RES1   0.0000
  3170 H5      -3.2483  17.4589   0.1345   H         1 RES1   0.0000
  3171 C6      -1.9253  16.8238   1.5185   C         1 RES1   0.0000
  3172 H6      -1.6506  16.0692   1.0503   H         1 RES1   0.0000
  3173 H6      -0.7127  16.5112   3.1342   H         1 RES1   0.0000
  3174 C1      -6.7208  17.2777   0.1014   C         1 RES1   0.0000
  3175 H1      -6.2162  17.0487   0.8470   H         1 RES1   0.0000
  3176 C2      -7.4726  21.4546   1.4712   C         1 RES1   0.0000
  3177 C5      -7.6887  20.3835   2.4138   C         1 RES1   0.0000
  3178 H5      -7.2105  19.5872   2.3666   H         1 RES1   0.0000
  3179 C6      -8.6496  20.6065   3.4022   C         1 RES1   0.0000
  3180 H6      -8.8335  19.9415   4.0248   H         1 RES1   0.0000
  3181 N       -4.1805  19.7544   1.4192   N         1 RES1   0.0000
  3182 N       -6.5840  21.5283   0.3804   N         1 RES1   0.0000
  3183 H5     -10.1209  28.0989   0.8932   H         1 RES1   0.0000
  3184 C2      -8.1668  22.6319   1.5332   C         1 RES1   0.0000
  3185 C5      -9.1232  22.8429   2.5736   C         1 RES1   0.0000
  3186 H5      -9.5807  23.6473   2.6414   H         1 RES1   0.0000
  3187 C6      -9.3496  21.8415   3.4610   C         1 RES1   0.0000
  3188 H6      -9.9830  21.9709   4.1294   H         1 RES1   0.0000
  3189 N       -7.7404  23.4502   0.5165   N         1 RES1   0.0000
  3190 Zn      -8.5332  25.2466   0.1303   Z         1 RES1   0.0000
  3191 C5     -13.8440  28.5084   0.9636   C         1 RES1   0.0000
  3192 H5     -13.4957  28.2755   0.1345   H         1 RES1   0.0000
  3193 C6     -13.6072  29.7388   1.5185   C         1 RES1   0.0000
  3194 H6     -13.0911  30.3540   1.0503   H         1 RES1   0.0000
  3195 H6     -13.9428  30.9453   3.1342   H         1 RES1   0.0000
  3196 C1     -11.6025  25.3588   0.1014   C         1 RES1   0.0000
  3197 H1     -11.6566  25.9103   0.8470   H         1 RES1   0.0000
  3198 H5     -13.3578  23.7800   2.3666   H         1 RES1   0.0000
  3199 N      -15.0176  26.3204   1.4192   N         1 RES1   0.0000
  3200 H1      -6.8266  14.6723  13.2199   H         1 RES1   0.0000
  3201 H5      -5.0886  14.6245  16.6562   H         1 RES1   0.0000
  3202 H5      -9.2140  16.3825  18.4044   H         1 RES1   0.0000
  3203 C2      -8.1450  17.1987  14.2918   C         1 RES1   0.0000
  3204 C5      -9.1807  16.8503  13.3492   C         1 RES1   0.0000
  3205 C6      -9.4680  17.7940  12.3608   C         1 RES1   0.0000
  3206 H6     -10.1359  17.6208  11.7382   H         1 RES1   0.0000
  3207 N       -7.6369  16.4661  15.3826   N         1 RES1   0.0000
  3208 Zn      -8.3527  14.6757  15.8933   Z         1 RES1   0.0000
  3209 H1      -4.6254  21.3332  18.3061   H         1 RES1   0.0000
  3210 C5      -2.8725  17.6440  16.7266   C         1 RES1   0.0000
  3211 H5      -3.2483  17.4589  15.8975   H         1 RES1   0.0000
  3212 C6      -1.9253  16.8238  17.2815   C         1 RES1   0.0000
  3213 H6      -1.6506  16.0692  16.8133   H         1 RES1   0.0000
  3214 H6      -0.7127  16.5112  18.8972   H         1 RES1   0.0000
  3215 H5      -3.7150  22.8144  14.8698   H         1 RES1   0.0000
  3216 C1      -6.7208  17.2777  15.8644   C         1 RES1   0.0000
  3217 H1      -6.2162  17.0487  16.6100   H         1 RES1   0.0000
  3218 C2      -7.4726  18.3886  14.2298   C         1 RES1   0.0000
  3219 C5      -7.7680  19.3224  13.1894   C         1 RES1   0.0000
  3220 H5      -7.3002  20.1207  13.1216   H         1 RES1   0.0000
  3221 C2      -7.4726  21.4546  17.2342   C         1 RES1   0.0000
  3222 C5      -7.6887  20.3835  18.1768   C         1 RES1   0.0000
  3223 H5      -7.2105  19.5872  18.1296   H         1 RES1   0.0000
  3224 C6      -8.7485  19.0178  12.3020   C         1 RES1   0.0000
  3225 H6      -8.9531  19.6310  11.6336   H         1 RES1   0.0000
  3226 C6      -8.6496  20.6065  19.1652   C         1 RES1   0.0000
  3227 H6      -8.8335  19.9415  19.7878   H         1 RES1   0.0000
  3228 N       -4.1805  19.7544  17.1822   N         1 RES1   0.0000
  3229 N       -6.5840  21.5283  16.1434   N         1 RES1   0.0000
  3230 N       -6.5507  18.4284  15.2465   N         1 RES1   0.0000
  3231 Zn      -5.3914  20.0132  15.6327   Z         1 RES1   0.0000
  3232 H1      -9.2933  26.5699  13.2199   H         1 RES1   0.0000
  3233 C5      -5.2220  26.2434  14.7994   C         1 RES1   0.0000
  3234 H5      -5.2495  25.8253  15.6285   H         1 RES1   0.0000
  3235 C6      -4.0380  26.6535  14.2445   C         1 RES1   0.0000
  3236 H6      -3.2472  26.5142  14.7127   H         1 RES1   0.0000
  3237 H6      -3.1610  27.5475  12.6288   H         1 RES1   0.0000
  3238 H5     -10.1209  28.0989  16.6562   H         1 RES1   0.0000
  3239 C1      -6.8289  22.7275  15.6616   C         1 RES1   0.0000
  3240 H1      -6.3783  23.0500  14.9160   H         1 RES1   0.0000
  3241 C2      -8.1668  22.6319  17.2962   C         1 RES1   0.0000
  3242 C5      -9.1232  22.8429  18.3366   C         1 RES1   0.0000
  3243 H5      -9.5807  23.6473  18.4044   H         1 RES1   0.0000
  3244 C2     -10.8221  24.1649  14.2918   C         1 RES1   0.0000
  3245 C5     -10.0025  23.4422  13.3492   C         1 RES1   0.0000
  3246 H5      -9.0738  23.4581  13.3964   H         1 RES1   0.0000
  3247 C6      -9.3496  21.8415  19.2240   C         1 RES1   0.0000
  3248 H6      -9.9830  21.9709  19.8924   H         1 RES1   0.0000
  3249 C6     -10.6761  22.7215  12.3608   C         1 RES1   0.0000
  3250 H6     -10.1922  22.2297  11.7382   H         1 RES1   0.0000
  3251 N       -7.7036  26.1658  14.3438   N         1 RES1   0.0000
  3252 N      -10.4416  24.9712  15.3826   N         1 RES1   0.0000
  3253 N       -7.7404  23.4502  16.2795   N         1 RES1   0.0000
  3254 Zn      -8.5332  25.2466  15.8933   Z         1 RES1   0.0000
  3255 C5     -13.8440  28.5084  16.7266   C         1 RES1   0.0000
  3256 H5     -13.4957  28.2755  15.8975   H         1 RES1   0.0000
  3257 C6     -13.6072  29.7388  17.2815   C         1 RES1   0.0000
  3258 H6     -13.0911  30.3540  16.8133   H         1 RES1   0.0000
  3259 H6     -13.9428  30.9453  18.8972   H         1 RES1   0.0000
  3260 C1     -11.6025  25.3588  15.8644   C         1 RES1   0.0000
  3261 H1     -11.6566  25.9103  16.6100   H         1 RES1   0.0000
  3262 C2     -12.1888  24.1523  14.2298   C         1 RES1   0.0000
  3263 C5     -12.8497  23.4296  13.1894   C         1 RES1   0.0000
  3264 H5     -13.3578  23.7800  18.1296   H         1 RES1   0.0000
  3265 C6     -12.0957  22.7328  12.3020   C         1 RES1   0.0000
  3266 H6     -12.5244  22.2490  11.6336   H         1 RES1   0.0000
  3267 N      -15.0176  26.3204  17.1822   N         1 RES1   0.0000
  3268 N      -12.6842  24.9307  15.2465   N         1 RES1   0.0000
  3269 H1      -6.8266  14.6723  28.9829   H         1 RES1   0.0000
  3270 C2      -8.1450  17.1987  30.0548   C         1 RES1   0.0000
  3271 C5      -9.1807  16.8503  29.1122   C         1 RES1   0.0000
  3272 C6      -9.4680  17.7940  28.1238   C         1 RES1   0.0000
  3273 H6     -10.1359  17.6208  27.5012   H         1 RES1   0.0000
  3274 N       -7.6369  16.4661  31.1456   N         1 RES1   0.0000
  3275 H5      -3.7150  22.8144  30.6328   H         1 RES1   0.0000
  3276 C2      -7.4726  18.3886  29.9928   C         1 RES1   0.0000
  3277 C5      -7.7680  19.3224  28.9524   C         1 RES1   0.0000
  3278 H5      -7.3002  20.1207  28.8846   H         1 RES1   0.0000
  3279 C6      -8.7485  19.0178  28.0650   C         1 RES1   0.0000
  3280 H6      -8.9531  19.6310  27.3966   H         1 RES1   0.0000
  3281 N       -6.5507  18.4284  31.0095   N         1 RES1   0.0000
  3282 Zn      -5.3914  20.0132  31.3957   Z         1 RES1   0.0000
  3283 H1      -9.2933  26.5699  28.9829   H         1 RES1   0.0000
  3284 C5      -5.2220  26.2434  30.5624   C         1 RES1   0.0000
  3285 H5      -5.2495  25.8253  31.3915   H         1 RES1   0.0000
  3286 C6      -4.0380  26.6535  30.0075   C         1 RES1   0.0000
  3287 H6      -3.2472  26.5142  30.4757   H         1 RES1   0.0000
  3288 H6      -3.1610  27.5475  28.3918   H         1 RES1   0.0000
  3289 C1      -6.8289  22.7275  31.4246   C         1 RES1   0.0000
  3290 H1      -6.3783  23.0500  30.6790   H         1 RES1   0.0000
  3291 C2     -10.8221  24.1649  30.0548   C         1 RES1   0.0000
  3292 C5     -10.0025  23.4422  29.1122   C         1 RES1   0.0000
  3293 H5      -9.0738  23.4581  29.1594   H         1 RES1   0.0000
  3294 C6     -10.6761  22.7215  28.1238   C         1 RES1   0.0000
  3295 H6     -10.1922  22.2297  27.5012   H         1 RES1   0.0000
  3296 N       -7.7036  26.1658  30.1068   N         1 RES1   0.0000
  3297 N      -10.4416  24.9712  31.1456   N         1 RES1   0.0000
  3298 C2     -12.1888  24.1523  29.9928   C         1 RES1   0.0000
  3299 C5     -12.8497  23.4296  28.9524   C         1 RES1   0.0000
  3300 C6     -12.0957  22.7328  28.0650   C         1 RES1   0.0000
  3301 H6     -12.5244  22.2490  27.3966   H         1 RES1   0.0000
  3302 N      -12.6842  24.9307  31.0095   N         1 RES1   0.0000
  3303 H5     -16.5831  34.5335   0.8932   H         1 RES1   0.0000
  3304 H5     -20.7085  36.2915   2.6414   H         1 RES1   0.0000
  3305 Zn     -19.8472  34.5847   0.1303   Z         1 RES1   0.0000
  3306 C5     -14.3670  37.5531   0.9636   C         1 RES1   0.0000
  3307 H5     -14.7428  37.3679   0.1345   H         1 RES1   0.0000
  3308 C6     -13.4198  36.7328   1.5185   C         1 RES1   0.0000
  3309 H6     -13.1451  35.9783   1.0503   H         1 RES1   0.0000
  3310 H6     -12.2072  36.4203   3.1342   H         1 RES1   0.0000
  3311 C1     -18.2153  37.1868   0.1014   C         1 RES1   0.0000
  3312 H1     -17.7107  36.9578   0.8470   H         1 RES1   0.0000
  3313 H5     -18.7050  39.4962   2.3666   H         1 RES1   0.0000
  3314 N      -15.6750  39.6634   1.4192   N         1 RES1   0.0000
  3315 H1     -18.3211  34.5813  13.2199   H         1 RES1   0.0000
  3316 H5     -16.5831  34.5335  16.6562   H         1 RES1   0.0000
  3317 H5     -20.7085  36.2915  18.4044   H         1 RES1   0.0000
  3318 C2     -19.6395  37.1078  14.2918   C         1 RES1   0.0000
  3319 C5     -20.6752  36.7594  13.3492   C         1 RES1   0.0000
  3320 C6     -20.9625  37.7031  12.3608   C         1 RES1   0.0000
  3321 H6     -21.6304  37.5299  11.7382   H         1 RES1   0.0000
  3322 N      -19.1314  36.3751  15.3826   N         1 RES1   0.0000
  3323 Zn     -19.8472  34.5847  15.8933   Z         1 RES1   0.0000
  3324 C5     -14.3670  37.5531  16.7266   C         1 RES1   0.0000
  3325 H5     -14.7428  37.3679  15.8975   H         1 RES1   0.0000
  3326 C6     -13.4198  36.7328  17.2815   C         1 RES1   0.0000
  3327 H6     -13.1451  35.9783  16.8133   H         1 RES1   0.0000
  3328 H6     -12.2072  36.4203  18.8972   H         1 RES1   0.0000
  3329 C1     -18.2153  37.1868  15.8644   C         1 RES1   0.0000
  3330 H1     -17.7107  36.9578  16.6100   H         1 RES1   0.0000
  3331 C2     -18.9671  38.2977  14.2298   C         1 RES1   0.0000
  3332 C5     -19.2625  39.2314  13.1894   C         1 RES1   0.0000
  3333 H5     -18.7050  39.4962  18.1296   H         1 RES1   0.0000
  3334 C6     -20.2430  38.9268  12.3020   C         1 RES1   0.0000
  3335 H6     -20.4476  39.5400  11.6336   H         1 RES1   0.0000
  3336 N      -15.6750  39.6634  17.1822   N         1 RES1   0.0000
  3337 N      -18.0452  38.3375  15.2465   N         1 RES1   0.0000
  3338 H1     -18.3211  34.5813  28.9829   H         1 RES1   0.0000
  3339 C2     -19.6395  37.1078  30.0548   C         1 RES1   0.0000
  3340 C5     -20.6752  36.7594  29.1122   C         1 RES1   0.0000
  3341 C6     -20.9625  37.7031  28.1238   C         1 RES1   0.0000
  3342 H6     -21.6304  37.5299  27.5012   H         1 RES1   0.0000
  3343 N      -19.1314  36.3751  31.1456   N         1 RES1   0.0000
  3344 C2     -18.9671  38.2977  29.9928   C         1 RES1   0.0000
  3345 C5     -19.2625  39.2314  28.9524   C         1 RES1   0.0000
  3346 C6     -20.2430  38.9268  28.0650   C         1 RES1   0.0000
  3347 H6     -20.4476  39.5400  27.3966   H         1 RES1   0.0000
  3348 N      -18.0452  38.3375  31.0095   N         1 RES1   0.0000
  3349 H1      29.8581   1.4241   2.5431   H         1 RES1   0.0000
  3350 C2      27.0109   1.5456   1.4712   C         1 RES1   0.0000
  3351 C5      26.7948   0.4745   2.4138   C         1 RES1   0.0000
  3352 C6      25.8339   0.6974   3.4022   C         1 RES1   0.0000
  3353 H6      25.6500   0.0325   4.0248   H         1 RES1   0.0000
  3354 N       27.8995   1.6192   0.3804   N         1 RES1   0.0000
  3355 H5      24.3626   8.1899   0.8932   H         1 RES1   0.0000
  3356 C2      26.3167   2.7229   1.5332   C         1 RES1   0.0000
  3357 C5      25.3603   2.9339   2.5736   C         1 RES1   0.0000
  3358 H5      24.9028   3.7382   2.6414   H         1 RES1   0.0000
  3359 C6      25.1339   1.9325   3.4610   C         1 RES1   0.0000
  3360 H6      24.5005   2.0619   4.1294   H         1 RES1   0.0000
  3361 N       26.7431   3.5411   0.5165   N         1 RES1   0.0000
  3362 Zn      25.9503   5.3375   0.1303   Z         1 RES1   0.0000
  3363 C2      18.9671   1.5203   1.5332   C         1 RES1   0.0000
  3364 C5      19.2625   0.5866   2.5736   C         1 RES1   0.0000
  3365 C6      20.2430   0.8912   3.4610   C         1 RES1   0.0000
  3366 H6      20.4476   0.2780   4.1294   H         1 RES1   0.0000
  3367 N       18.0452   1.4805   0.5165   N         1 RES1   0.0000
  3368 H1      18.3211   5.2367   2.5431   H         1 RES1   0.0000
  3369 C5      20.6395   8.5993   0.9636   C         1 RES1   0.0000
  3370 H5      20.9878   8.3664   0.1345   H         1 RES1   0.0000
  3371 C6      20.8763   9.8297   1.5185   C         1 RES1   0.0000
  3372 H6      21.3924  10.4449   1.0503   H         1 RES1   0.0000
  3373 H6      20.5407  11.0362   3.1342   H         1 RES1   0.0000
  3374 C1      22.8810   5.4497   0.1014   C         1 RES1   0.0000
  3375 H1      22.8269   6.0012   0.8470   H         1 RES1   0.0000
  3376 C2      19.6395   2.7102   1.4712   C         1 RES1   0.0000
  3377 C5      20.6752   3.0587   2.4138   C         1 RES1   0.0000
  3378 H5      21.1257   3.8709   2.3666   H         1 RES1   0.0000
  3379 C6      20.9625   2.1150   3.4022   C         1 RES1   0.0000
  3380 H6      21.6304   2.2882   4.0248   H         1 RES1   0.0000
  3381 N       19.4659   6.4113   1.4192   N         1 RES1   0.0000
  3382 N       19.1314   3.4429   0.3804   N         1 RES1   0.0000
  3383 H1      29.8581   1.4241  18.3061   H         1 RES1   0.0000
  3384 H5      30.7685   2.9054  14.8698   H         1 RES1   0.0000
  3385 H5      27.1833   0.2117  13.1216   H         1 RES1   0.0000
  3386 C2      27.0109   1.5456  17.2342   C         1 RES1   0.0000
  3387 C5      26.7948   0.4745  18.1768   C         1 RES1   0.0000
  3388 C6      25.8339   0.6974  19.1652   C         1 RES1   0.0000
  3389 H6      25.6500   0.0325  19.7878   H         1 RES1   0.0000
  3390 N       27.8995   1.6192  16.1434   N         1 RES1   0.0000
  3391 Zn      29.0921   0.1041  15.6327   Z         1 RES1   0.0000
  3392 H1      25.1902   6.6609  13.2199   H         1 RES1   0.0000
  3393 C5      29.2615   6.3344  14.7994   C         1 RES1   0.0000
  3394 H5      29.2340   5.9163  15.6285   H         1 RES1   0.0000
  3395 C6      30.4455   6.7445  14.2445   C         1 RES1   0.0000
  3396 H6      31.2363   6.6051  14.7127   H         1 RES1   0.0000
  3397 H6      31.3225   7.6384  12.6288   H         1 RES1   0.0000
  3398 H5      24.3626   8.1899  16.6562   H         1 RES1   0.0000
  3399 C1      27.6546   2.8184  15.6616   C         1 RES1   0.0000
  3400 H1      28.1052   3.1409  14.9160   H         1 RES1   0.0000
  3401 C2      26.3167   2.7229  17.2962   C         1 RES1   0.0000
  3402 C5      25.3603   2.9339  18.3366   C         1 RES1   0.0000
  3403 H5      24.9028   3.7382  18.4044   H         1 RES1   0.0000
  3404 C2      23.6614   4.2559  14.2918   C         1 RES1   0.0000
  3405 C5      24.4810   3.5332  13.3492   C         1 RES1   0.0000
  3406 H5      25.4097   3.5491  13.3964   H         1 RES1   0.0000
  3407 C6      25.1339   1.9325  19.2240   C         1 RES1   0.0000
  3408 H6      24.5005   2.0619  19.8924   H         1 RES1   0.0000
  3409 C6      23.8074   2.8124  12.3608   C         1 RES1   0.0000
  3410 H6      24.2913   2.3207  11.7382   H         1 RES1   0.0000
  3411 N       26.7799   6.2567  14.3438   N         1 RES1   0.0000
  3412 N       24.0419   5.0622  15.3826   N         1 RES1   0.0000
  3413 N       26.7431   3.5411  16.2795   N         1 RES1   0.0000
  3414 Zn      25.9503   5.3375  15.8933   Z         1 RES1   0.0000
  3415 C5      14.3670   2.2649  14.7994   C         1 RES1   0.0000
  3416 H5      14.7428   2.4501  15.6285   H         1 RES1   0.0000
  3417 C6      13.4198   3.0852  14.2445   C         1 RES1   0.0000
  3418 H6      13.1451   3.8398  14.7127   H         1 RES1   0.0000
  3419 H6      12.2072   3.3978  12.6288   H         1 RES1   0.0000
  3420 C1      18.2153   2.6313  15.6616   C         1 RES1   0.0000
  3421 H1      17.7107   2.8602  14.9160   H         1 RES1   0.0000
  3422 C2      18.9671   1.5203  17.2962   C         1 RES1   0.0000
  3423 C5      19.2625   0.5866  18.3366   C         1 RES1   0.0000
  3424 H5      18.7050   0.3218  13.3964   H         1 RES1   0.0000
  3425 C6      20.2430   0.8912  19.2240   C         1 RES1   0.0000
  3426 H6      20.4476   0.2780  19.8924   H         1 RES1   0.0000
  3427 N       15.6750   0.1546  14.3438   N         1 RES1   0.0000
  3428 N       18.0452   1.4805  16.2795   N         1 RES1   0.0000
  3429 H1      18.3211   5.2367  18.3061   H         1 RES1   0.0000
  3430 C5      20.6395   8.5993  16.7266   C         1 RES1   0.0000
  3431 H5      20.9878   8.3664  15.8975   H         1 RES1   0.0000
  3432 C6      20.8763   9.8297  17.2815   C         1 RES1   0.0000
  3433 H6      21.3924  10.4449  16.8133   H         1 RES1   0.0000
  3434 H6      20.5407  11.0362  18.8972   H         1 RES1   0.0000
  3435 H5      16.5831   5.2845  14.8698   H         1 RES1   0.0000
  3436 C1      22.8810   5.4497  15.8644   C         1 RES1   0.0000
  3437 H1      22.8269   6.0012  16.6100   H         1 RES1   0.0000
  3438 C2      22.2947   4.2432  14.2298   C         1 RES1   0.0000
  3439 C5      21.6338   3.5205  13.1894   C         1 RES1   0.0000
  3440 H5      20.7085   3.5265  13.1216   H         1 RES1   0.0000
  3441 C2      19.6395   2.7102  17.2342   C         1 RES1   0.0000
  3442 C5      20.6752   3.0587  18.1768   C         1 RES1   0.0000
  3443 H5      21.1257   3.8709  18.1296   H         1 RES1   0.0000
  3444 C6      22.3878   2.8237  12.3020   C         1 RES1   0.0000
  3445 H6      21.9591   2.3399  11.6336   H         1 RES1   0.0000
  3446 C6      20.9625   2.1150  19.1652   C         1 RES1   0.0000
  3447 H6      21.6304   2.2882  19.7878   H         1 RES1   0.0000
  3448 N       19.4659   6.4113  17.1822   N         1 RES1   0.0000
  3449 N       19.1314   3.4429  16.1434   N         1 RES1   0.0000
  3450 N       21.7993   5.0217  15.2465   N         1 RES1   0.0000
  3451 Zn      19.8472   5.2333  15.6327   Z         1 RES1   0.0000
  3452 H5      30.7685   2.9054  30.6328   H         1 RES1   0.0000
  3453 H5      27.1833   0.2117  28.8846   H         1 RES1   0.0000
  3454 Zn      29.0921   0.1041  31.3957   Z         1 RES1   0.0000
  3455 H1      25.1902   6.6609  28.9829   H         1 RES1   0.0000
  3456 C5      29.2615   6.3344  30.5624   C         1 RES1   0.0000
  3457 H5      29.2340   5.9163  31.3915   H         1 RES1   0.0000
  3458 C6      30.4455   6.7445  30.0075   C         1 RES1   0.0000
  3459 H6      31.2363   6.6051  30.4757   H         1 RES1   0.0000
  3460 H6      31.3225   7.6384  28.3918   H         1 RES1   0.0000
  3461 C1      27.6546   2.8184  31.4246   C         1 RES1   0.0000
  3462 H1      28.1052   3.1409  30.6790   H         1 RES1   0.0000
  3463 C2      23.6614   4.2559  30.0548   C         1 RES1   0.0000
  3464 C5      24.4810   3.5332  29.1122   C         1 RES1   0.0000
  3465 H5      25.4097   3.5491  29.1594   H         1 RES1   0.0000
  3466 C6      23.8074   2.8124  28.1238   C         1 RES1   0.0000
  3467 H6      24.2913   2.3207  27.5012   H         1 RES1   0.0000
  3468 N       26.7799   6.2567  30.1068   N         1 RES1   0.0000
  3469 N       24.0419   5.0622  31.1456   N         1 RES1   0.0000
  3470 C5      14.3670   2.2649  30.5624   C         1 RES1   0.0000
  3471 H5      14.7428   2.4501  31.3915   H         1 RES1   0.0000
  3472 C6      13.4198   3.0852  30.0075   C         1 RES1   0.0000
  3473 H6      13.1451   3.8398  30.4757   H         1 RES1   0.0000
  3474 H6      12.2072   3.3978  28.3918   H         1 RES1   0.0000
  3475 C1      18.2153   2.6313  31.4246   C         1 RES1   0.0000
  3476 H1      17.7107   2.8602  30.6790   H         1 RES1   0.0000
  3477 H5      18.7050   0.3218  29.1594   H         1 RES1   0.0000
  3478 N       15.6750   0.1546  30.1068   N         1 RES1   0.0000
  3479 H5      16.5831   5.2845  30.6328   H         1 RES1   0.0000
  3480 C2      22.2947   4.2432  29.9928   C         1 RES1   0.0000
  3481 C5      21.6338   3.5205  28.9524   C         1 RES1   0.0000
  3482 H5      20.7085   3.5265  28.8846   H         1 RES1   0.0000
  3483 C6      22.3878   2.8237  28.0650   C         1 RES1   0.0000
  3484 H6      21.9591   2.3399  27.3966   H         1 RES1   0.0000
  3485 N       21.7993   5.0217  31.0095   N         1 RES1   0.0000
  3486 Zn      19.8472   5.2333  31.3957   Z         1 RES1   0.0000
  3487 H5      17.9004  14.6245   0.8932   H         1 RES1   0.0000
  3488 C2      12.1888  15.6657   1.5332   C         1 RES1   0.0000
  3489 C5      12.8497  16.3884   2.5736   C         1 RES1   0.0000
  3490 H5      13.7750  16.3825   2.6414   H         1 RES1   0.0000
  3491 C6      12.0957  17.0852   3.4610   C         1 RES1   0.0000
  3492 H6      12.5244  17.5690   4.1294   H         1 RES1   0.0000
  3493 N       12.6842  14.8873   0.5165   N         1 RES1   0.0000
  3494 Zn      14.6363  14.6757   0.1303   Z         1 RES1   0.0000
  3495 H1       9.2933  13.2481   2.5431   H         1 RES1   0.0000
  3496 C5       5.2220  13.5746   0.9636   C         1 RES1   0.0000
  3497 H5       5.2495  13.9927   0.1345   H         1 RES1   0.0000
  3498 C6       4.0380  13.1645   1.5185   C         1 RES1   0.0000
  3499 H6       3.2472  13.3039   1.0503   H         1 RES1   0.0000
  3500 H6       3.1610  12.2706   3.1342   H         1 RES1   0.0000
  3501 C1       6.8289  17.0906   0.1014   C         1 RES1   0.0000
  3502 H1       6.3783  16.7680   0.8470   H         1 RES1   0.0000
  3503 C2      10.8221  15.6531   1.4712   C         1 RES1   0.0000
  3504 C5      10.0025  16.3758   2.4138   C         1 RES1   0.0000
  3505 H5       9.0738  16.3599   2.3666   H         1 RES1   0.0000
  3506 C6      10.6761  17.0965   3.4022   C         1 RES1   0.0000
  3507 H6      10.1922  17.5883   4.0248   H         1 RES1   0.0000
  3508 N        7.7036  13.6523   1.4192   N         1 RES1   0.0000
  3509 N       10.4416  14.8468   0.3804   N         1 RES1   0.0000
  3510 H1      18.3636  21.3332   2.5431   H         1 RES1   0.0000
  3511 C5      20.1165  17.6440   0.9636   C         1 RES1   0.0000
  3512 H5      19.7407  17.4589   0.1345   H         1 RES1   0.0000
  3513 C6      21.0637  16.8238   1.5185   C         1 RES1   0.0000
  3514 H6      21.3384  16.0692   1.0503   H         1 RES1   0.0000
  3515 H6      22.2763  16.5112   3.1342   H         1 RES1   0.0000
  3516 C1      16.2682  17.2777   0.1014   C         1 RES1   0.0000
  3517 H1      16.7728  17.0487   0.8470   H         1 RES1   0.0000
  3518 C2      15.5164  21.4546   1.4712   C         1 RES1   0.0000
  3519 C5      15.3003  20.3835   2.4138   C         1 RES1   0.0000
  3520 H5      15.7785  19.5872   2.3666   H         1 RES1   0.0000
  3521 C6      14.3394  20.6065   3.4022   C         1 RES1   0.0000
  3522 H6      14.1555  19.9415   4.0248   H         1 RES1   0.0000
  3523 N       18.8085  19.7544   1.4192   N         1 RES1   0.0000
  3524 N       16.4050  21.5283   0.3804   N         1 RES1   0.0000
  3525 H5      12.8681  28.0989   0.8932   H         1 RES1   0.0000
  3526 C2      14.8222  22.6319   1.5332   C         1 RES1   0.0000
  3527 C5      13.8658  22.8429   2.5736   C         1 RES1   0.0000
  3528 H5      13.4083  23.6473   2.6414   H         1 RES1   0.0000
  3529 C6      13.6394  21.8415   3.4610   C         1 RES1   0.0000
  3530 H6      13.0060  21.9709   4.1294   H         1 RES1   0.0000
  3531 N       15.2486  23.4502   0.5165   N         1 RES1   0.0000
  3532 Zn      14.4558  25.2466   0.1303   Z         1 RES1   0.0000
  3533 H5       3.7150  17.0036   0.8932   H         1 RES1   0.0000
  3534 C2       7.4726  21.4294   1.5332   C         1 RES1   0.0000
  3535 C5       7.7680  20.4957   2.5736   C         1 RES1   0.0000
  3536 H5       7.3002  19.6973   2.6414   H         1 RES1   0.0000
  3537 C6       8.7485  20.8003   3.4610   C         1 RES1   0.0000
  3538 H6       8.9531  20.1871   4.1294   H         1 RES1   0.0000
  3539 N        6.5507  21.3896   0.5165   N         1 RES1   0.0000
  3540 Zn       5.3914  19.8048   0.1303   Z         1 RES1   0.0000
  3541 H1       6.8266  25.1458   2.5431   H         1 RES1   0.0000
  3542 C5       9.1450  28.5084   0.9636   C         1 RES1   0.0000
  3543 H5       9.4933  28.2755   0.1345   H         1 RES1   0.0000
  3544 C6       9.3818  29.7388   1.5185   C         1 RES1   0.0000
  3545 H6       9.8979  30.3540   1.0503   H         1 RES1   0.0000
  3546 H6       9.0462  30.9453   3.1342   H         1 RES1   0.0000
  3547 C1      11.3865  25.3588   0.1014   C         1 RES1   0.0000
  3548 H1      11.3324  25.9103   0.8470   H         1 RES1   0.0000
  3549 C2       8.1450  22.6193   1.4712   C         1 RES1   0.0000
  3550 C5       9.1807  22.9677   2.4138   C         1 RES1   0.0000
  3551 H5       9.6312  23.7800   2.3666   H         1 RES1   0.0000
  3552 C6       9.4680  22.0240   3.4022   C         1 RES1   0.0000
  3553 H6      10.1359  22.1972   4.0248   H         1 RES1   0.0000
  3554 N        7.9714  26.3204   1.4192   N         1 RES1   0.0000
  3555 N        7.6369  23.3520   0.3804   N         1 RES1   0.0000
  3556 H1      16.1624  14.6723  13.2199   H         1 RES1   0.0000
  3557 C5      13.8440  11.3096  14.7994   C         1 RES1   0.0000
  3558 H5      13.4957  11.5426  15.6285   H         1 RES1   0.0000
  3559 C6      13.6072  10.0793  14.2445   C         1 RES1   0.0000
  3560 H6      13.0911   9.4641  14.7127   H         1 RES1   0.0000
  3561 H6      13.9428   8.8728  12.6288   H         1 RES1   0.0000
  3562 H5      17.9004  14.6245  16.6562   H         1 RES1   0.0000
  3563 C1      11.6025  14.4592  15.6616   C         1 RES1   0.0000
  3564 H1      11.6566  13.9078  14.9160   H         1 RES1   0.0000
  3565 C2      12.1888  15.6657  17.2962   C         1 RES1   0.0000
  3566 C5      12.8497  16.3884  18.3366   C         1 RES1   0.0000
  3567 H5      13.7750  16.3825  18.4044   H         1 RES1   0.0000
  3568 C2      14.8440  17.1987  14.2918   C         1 RES1   0.0000
  3569 C5      13.8083  16.8503  13.3492   C         1 RES1   0.0000
  3570 H5      13.3578  16.0380  13.3964   H         1 RES1   0.0000
  3571 C6      12.0957  17.0852  19.2240   C         1 RES1   0.0000
  3572 H6      12.5244  17.5690  19.8924   H         1 RES1   0.0000
  3573 C6      13.5210  17.7940  12.3608   C         1 RES1   0.0000
  3574 H6      12.8531  17.6208  11.7382   H         1 RES1   0.0000
  3575 N       15.0176  13.4976  14.3438   N         1 RES1   0.0000
  3576 N       15.3521  16.4661  15.3826   N         1 RES1   0.0000
  3577 N       12.6842  14.8873  16.2795   N         1 RES1   0.0000
  3578 Zn      14.6363  14.6757  15.8933   Z         1 RES1   0.0000
  3579 H1       9.2933  13.2481  18.3061   H         1 RES1   0.0000
  3580 C5       5.2220  13.5746  16.7266   C         1 RES1   0.0000
  3581 H5       5.2495  13.9927  15.8975   H         1 RES1   0.0000
  3582 C6       4.0380  13.1645  17.2815   C         1 RES1   0.0000
  3583 H6       3.2472  13.3039  16.8133   H         1 RES1   0.0000
  3584 H6       3.1610  12.2706  18.8972   H         1 RES1   0.0000
  3585 H5      10.1209  11.7191  14.8698   H         1 RES1   0.0000
  3586 C1       6.8289  17.0906  15.8644   C         1 RES1   0.0000
  3587 H1       6.3783  16.7680  16.6100   H         1 RES1   0.0000
  3588 C2       8.1668  17.1861  14.2298   C         1 RES1   0.0000
  3589 C5       9.1232  16.9751  13.1894   C         1 RES1   0.0000
  3590 H5       9.5807  16.1708  13.1216   H         1 RES1   0.0000
  3591 C2      10.8221  15.6531  17.2342   C         1 RES1   0.0000
  3592 C5      10.0025  16.3758  18.1768   C         1 RES1   0.0000
  3593 H5       9.0738  16.3599  18.1296   H         1 RES1   0.0000
  3594 C6       9.3496  17.9765  12.3020   C         1 RES1   0.0000
  3595 H6       9.9830  17.8471  11.6336   H         1 RES1   0.0000
  3596 C6      10.6761  17.0965  19.1652   C         1 RES1   0.0000
  3597 H6      10.1922  17.5883  19.7878   H         1 RES1   0.0000
  3598 N        7.7036  13.6523  17.1822   N         1 RES1   0.0000
  3599 N       10.4416  14.8468  16.1434   N         1 RES1   0.0000
  3600 N        7.7404  16.3679  15.2465   N         1 RES1   0.0000
  3601 Zn       8.5332  14.5715  15.6327   Z         1 RES1   0.0000
  3602 H1      18.3636  21.3332  18.3061   H         1 RES1   0.0000
  3603 C5      20.1165  17.6440  16.7266   C         1 RES1   0.0000
  3604 H5      19.7407  17.4589  15.8975   H         1 RES1   0.0000
  3605 C6      21.0637  16.8238  17.2815   C         1 RES1   0.0000
  3606 H6      21.3384  16.0692  16.8133   H         1 RES1   0.0000
  3607 H6      22.2763  16.5112  18.8972   H         1 RES1   0.0000
  3608 H5      19.2740  22.8144  14.8698   H         1 RES1   0.0000
  3609 C1      16.2682  17.2777  15.8644   C         1 RES1   0.0000
  3610 H1      16.7728  17.0487  16.6100   H         1 RES1   0.0000
  3611 C2      15.5164  18.3886  14.2298   C         1 RES1   0.0000
  3612 C5      15.2210  19.3224  13.1894   C         1 RES1   0.0000
  3613 H5      15.6888  20.1207  13.1216   H         1 RES1   0.0000
  3614 C2      15.5164  21.4546  17.2342   C         1 RES1   0.0000
  3615 C5      15.3003  20.3835  18.1768   C         1 RES1   0.0000
  3616 H5      15.7785  19.5872  18.1296   H         1 RES1   0.0000
  3617 C6      14.2405  19.0178  12.3020   C         1 RES1   0.0000
  3618 H6      14.0359  19.6310  11.6336   H         1 RES1   0.0000
  3619 C6      14.3394  20.6065  19.1652   C         1 RES1   0.0000
  3620 H6      14.1555  19.9415  19.7878   H         1 RES1   0.0000
  3621 N       18.8085  19.7544  17.1822   N         1 RES1   0.0000
  3622 N       16.4050  21.5283  16.1434   N         1 RES1   0.0000
  3623 N       16.4383  18.4284  15.2465   N         1 RES1   0.0000
  3624 Zn      17.5976  20.0132  15.6327   Z         1 RES1   0.0000
  3625 H1      13.6957  26.5699  13.2199   H         1 RES1   0.0000
  3626 C5      17.7670  26.2434  14.7994   C         1 RES1   0.0000
  3627 H5      17.7395  25.8253  15.6285   H         1 RES1   0.0000
  3628 C6      18.9510  26.6535  14.2445   C         1 RES1   0.0000
  3629 H6      19.7418  26.5142  14.7127   H         1 RES1   0.0000
  3630 H6      19.8280  27.5475  12.6288   H         1 RES1   0.0000
  3631 H5      12.8681  28.0989  16.6562   H         1 RES1   0.0000
  3632 C1      16.1601  22.7275  15.6616   C         1 RES1   0.0000
  3633 H1      16.6107  23.0500  14.9160   H         1 RES1   0.0000
  3634 C2      14.8222  22.6319  17.2962   C         1 RES1   0.0000
  3635 C5      13.8658  22.8429  18.3366   C         1 RES1   0.0000
  3636 H5      13.4083  23.6473  18.4044   H         1 RES1   0.0000
  3637 C2      12.1669  24.1649  14.2918   C         1 RES1   0.0000
  3638 C5      12.9865  23.4422  13.3492   C         1 RES1   0.0000
  3639 H5      13.9152  23.4581  13.3964   H         1 RES1   0.0000
  3640 C6      13.6394  21.8415  19.2240   C         1 RES1   0.0000
  3641 H6      13.0060  21.9709  19.8924   H         1 RES1   0.0000
  3642 C6      12.3129  22.7215  12.3608   C         1 RES1   0.0000
  3643 H6      12.7968  22.2297  11.7382   H         1 RES1   0.0000
  3644 N       15.2854  26.1658  14.3438   N         1 RES1   0.0000
  3645 N       12.5474  24.9712  15.3826   N         1 RES1   0.0000
  3646 N       15.2486  23.4502  16.2795   N         1 RES1   0.0000
  3647 Zn      14.4558  25.2466  15.8933   Z         1 RES1   0.0000
  3648 H1       4.6254  18.4849  13.2199   H         1 RES1   0.0000
  3649 C5       2.8725  22.1740  14.7994   C         1 RES1   0.0000
  3650 H5       3.2483  22.3592  15.6285   H         1 RES1   0.0000
  3651 C6       1.9253  22.9943  14.2445   C         1 RES1   0.0000
  3652 H6       1.6506  23.7488  14.7127   H         1 RES1   0.0000
  3653 H6       0.7127  23.3068  12.6288   H         1 RES1   0.0000
  3654 H5       3.7150  17.0036  16.6562   H         1 RES1   0.0000
  3655 C1       6.7208  22.5403  15.6616   C         1 RES1   0.0000
  3656 H1       6.2162  22.7693  14.9160   H         1 RES1   0.0000
  3657 C2       7.4726  21.4294  17.2962   C         1 RES1   0.0000
  3658 C5       7.7680  20.4957  18.3366   C         1 RES1   0.0000
  3659 H5       7.3002  19.6973  18.4044   H         1 RES1   0.0000
  3660 C2       7.4726  18.3634  14.2918   C         1 RES1   0.0000
  3661 C5       7.6887  19.4345  13.3492   C         1 RES1   0.0000
  3662 H5       7.2105  20.2309  13.3964   H         1 RES1   0.0000
  3663 C6       8.7485  20.8003  19.2240   C         1 RES1   0.0000
  3664 H6       8.9531  20.1871  19.8924   H         1 RES1   0.0000
  3665 C6       8.6496  19.2115  12.3608   C         1 RES1   0.0000
  3666 H6       8.8335  19.8765  11.7382   H         1 RES1   0.0000
  3667 N        4.1805  20.0636  14.3438   N         1 RES1   0.0000
  3668 N        6.5840  18.2897  15.3826   N         1 RES1   0.0000
  3669 N        6.5507  21.3896  16.2795   N         1 RES1   0.0000
  3670 Zn       5.3914  19.8048  15.8933   Z         1 RES1   0.0000
  3671 H1       6.8266  25.1458  18.3061   H         1 RES1   0.0000
  3672 C5       9.1450  28.5084  16.7266   C         1 RES1   0.0000
  3673 H5       9.4933  28.2755  15.8975   H         1 RES1   0.0000
  3674 C6       9.3818  29.7388  17.2815   C         1 RES1   0.0000
  3675 H6       9.8979  30.3540  16.8133   H         1 RES1   0.0000
  3676 H6       9.0462  30.9453  18.8972   H         1 RES1   0.0000
  3677 H5       5.0886  25.1935  14.8698   H         1 RES1   0.0000
  3678 C1      11.3865  25.3588  15.8644   C         1 RES1   0.0000
  3679 H1      11.3324  25.9103  16.6100   H         1 RES1   0.0000
  3680 C2      10.8002  24.1523  14.2298   C         1 RES1   0.0000
  3681 C5      10.1393  23.4296  13.1894   C         1 RES1   0.0000
  3682 H5       9.2140  23.4356  13.1216   H         1 RES1   0.0000
  3683 C2       8.1450  22.6193  17.2342   C         1 RES1   0.0000
  3684 C5       9.1807  22.9677  18.1768   C         1 RES1   0.0000
  3685 H5       9.6312  23.7800  18.1296   H         1 RES1   0.0000
  3686 C6      10.8933  22.7328  12.3020   C         1 RES1   0.0000
  3687 H6      10.4646  22.2490  11.6336   H         1 RES1   0.0000
  3688 C6       9.4680  22.0240  19.1652   C         1 RES1   0.0000
  3689 H6      10.1359  22.1972  19.7878   H         1 RES1   0.0000
  3690 N        7.9714  26.3204  17.1822   N         1 RES1   0.0000
  3691 N        7.6369  23.3520  16.1434   N         1 RES1   0.0000
  3692 N       10.3048  24.9307  15.2465   N         1 RES1   0.0000
  3693 Zn       8.3527  25.1424  15.6327   Z         1 RES1   0.0000
  3694 H1      16.1624  14.6723  28.9829   H         1 RES1   0.0000
  3695 C5      13.8440  11.3096  30.5624   C         1 RES1   0.0000
  3696 H5      13.4957  11.5426  31.3915   H         1 RES1   0.0000
  3697 C6      13.6072  10.0793  30.0075   C         1 RES1   0.0000
  3698 H6      13.0911   9.4641  30.4757   H         1 RES1   0.0000
  3699 H6      13.9428   8.8728  28.3918   H         1 RES1   0.0000
  3700 C1      11.6025  14.4592  31.4246   C         1 RES1   0.0000
  3701 H1      11.6566  13.9078  30.6790   H         1 RES1   0.0000
  3702 C2      14.8440  17.1987  30.0548   C         1 RES1   0.0000
  3703 C5      13.8083  16.8503  29.1122   C         1 RES1   0.0000
  3704 H5      13.3578  16.0380  29.1594   H         1 RES1   0.0000
  3705 C6      13.5210  17.7940  28.1238   C         1 RES1   0.0000
  3706 H6      12.8531  17.6208  27.5012   H         1 RES1   0.0000
  3707 N       15.0176  13.4976  30.1068   N         1 RES1   0.0000
  3708 N       15.3521  16.4661  31.1456   N         1 RES1   0.0000
  3709 H5      10.1209  11.7191  30.6328   H         1 RES1   0.0000
  3710 C2       8.1668  17.1861  29.9928   C         1 RES1   0.0000
  3711 C5       9.1232  16.9751  28.9524   C         1 RES1   0.0000
  3712 H5       9.5807  16.1708  28.8846   H         1 RES1   0.0000
  3713 C6       9.3496  17.9765  28.0650   C         1 RES1   0.0000
  3714 H6       9.9830  17.8471  27.3966   H         1 RES1   0.0000
  3715 N        7.7404  16.3679  31.0095   N         1 RES1   0.0000
  3716 Zn       8.5332  14.5715  31.3957   Z         1 RES1   0.0000
  3717 H5      19.2740  22.8144  30.6328   H         1 RES1   0.0000
  3718 C2      15.5164  18.3886  29.9928   C         1 RES1   0.0000
  3719 C5      15.2210  19.3224  28.9524   C         1 RES1   0.0000
  3720 H5      15.6888  20.1207  28.8846   H         1 RES1   0.0000
  3721 C6      14.2405  19.0178  28.0650   C         1 RES1   0.0000
  3722 H6      14.0359  19.6310  27.3966   H         1 RES1   0.0000
  3723 N       16.4383  18.4284  31.0095   N         1 RES1   0.0000
  3724 Zn      17.5976  20.0132  31.3957   Z         1 RES1   0.0000
  3725 H1      13.6957  26.5699  28.9829   H         1 RES1   0.0000
  3726 C5      17.7670  26.2434  30.5624   C         1 RES1   0.0000
  3727 H5      17.7395  25.8253  31.3915   H         1 RES1   0.0000
  3728 C6      18.9510  26.6535  30.0075   C         1 RES1   0.0000
  3729 H6      19.7418  26.5142  30.4757   H         1 RES1   0.0000
  3730 H6      19.8280  27.5475  28.3918   H         1 RES1   0.0000
  3731 C1      16.1601  22.7275  31.4246   C         1 RES1   0.0000
  3732 H1      16.6107  23.0500  30.6790   H         1 RES1   0.0000
  3733 C2      12.1669  24.1649  30.0548   C         1 RES1   0.0000
  3734 C5      12.9865  23.4422  29.1122   C         1 RES1   0.0000
  3735 H5      13.9152  23.4581  29.1594   H         1 RES1   0.0000
  3736 C6      12.3129  22.7215  28.1238   C         1 RES1   0.0000
  3737 H6      12.7968  22.2297  27.5012   H         1 RES1   0.0000
  3738 N       15.2854  26.1658  30.1068   N         1 RES1   0.0000
  3739 N       12.5474  24.9712  31.1456   N         1 RES1   0.0000
  3740 H1       4.6254  18.4849  28.9829   H         1 RES1   0.0000
  3741 C5       2.8725  22.1740  30.5624   C         1 RES1   0.0000
  3742 H5       3.2483  22.3592  31.3915   H         1 RES1   0.0000
  3743 C6       1.9253  22.9943  30.0075   C         1 RES1   0.0000
  3744 H6       1.6506  23.7488  30.4757   H         1 RES1   0.0000
  3745 H6       0.7127  23.3068  28.3918   H         1 RES1   0.0000
  3746 C1       6.7208  22.5403  31.4246   C         1 RES1   0.0000
  3747 H1       6.2162  22.7693  30.6790   H         1 RES1   0.0000
  3748 C2       7.4726  18.3634  30.0548   C         1 RES1   0.0000
  3749 C5       7.6887  19.4345  29.1122   C         1 RES1   0.0000
  3750 H5       7.2105  20.2309  29.1594   H         1 RES1   0.0000
  3751 C6       8.6496  19.2115  28.1238   C         1 RES1   0.0000
  3752 H6       8.8335  19.8765  27.5012   H         1 RES1   0.0000
  3753 N        4.1805  20.0636  30.1068   N         1 RES1   0.0000
  3754 N        6.5840  18.2897  31.1456   N         1 RES1   0.0000
  3755 H5       5.0886  25.1935  30.6328   H         1 RES1   0.0000
  3756 C2      10.8002  24.1523  29.9928   C         1 RES1   0.0000
  3757 C5      10.1393  23.4296  28.9524   C         1 RES1   0.0000
  3758 H5       9.2140  23.4356  28.8846   H         1 RES1   0.0000
  3759 C6      10.8933  22.7328  28.0650   C         1 RES1   0.0000
  3760 H6      10.4646  22.2490  27.3966   H         1 RES1   0.0000
  3761 N       10.3048  24.9307  31.0095   N         1 RES1   0.0000
  3762 Zn       8.3527  25.1424  31.3957   Z         1 RES1   0.0000
  3763 H5       6.4059  34.5335   0.8932   H         1 RES1   0.0000
  3764 C2       0.6943  35.5748   1.5332   C         1 RES1   0.0000
  3765 C5       1.3552  36.2975   2.5736   C         1 RES1   0.0000
  3766 H5       2.2805  36.2915   2.6414   H         1 RES1   0.0000
  3767 C6       0.6012  36.9943   3.4610   C         1 RES1   0.0000
  3768 H6       1.0299  37.4781   4.1294   H         1 RES1   0.0000
  3769 N        1.1897  34.7963   0.5165   N         1 RES1   0.0000
  3770 Zn       3.1418  34.5847   0.1303   Z         1 RES1   0.0000
  3771 H1      -2.2012  33.1572   2.5431   H         1 RES1   0.0000
  3772 C5      -6.2725  33.4837   0.9636   C         1 RES1   0.0000
  3773 H5      -6.2450  33.9018   0.1345   H         1 RES1   0.0000
  3774 C6      -7.4565  33.0735   1.5185   C         1 RES1   0.0000
  3775 H6      -8.2473  33.2129   1.0503   H         1 RES1   0.0000
  3776 H6      -8.3335  32.1796   3.1342   H         1 RES1   0.0000
  3777 C1      -4.6656  36.9996   0.1014   C         1 RES1   0.0000
  3778 H1      -5.1162  36.6771   0.8470   H         1 RES1   0.0000
  3779 C2      -0.6724  35.5622   1.4712   C         1 RES1   0.0000
  3780 C5      -1.4920  36.2849   2.4138   C         1 RES1   0.0000
  3781 H5      -2.4207  36.2690   2.3666   H         1 RES1   0.0000
  3782 C6      -0.8184  37.0056   3.4022   C         1 RES1   0.0000
  3783 H6      -1.3023  37.4973   4.0248   H         1 RES1   0.0000
  3784 N       -3.7909  33.5613   1.4192   N         1 RES1   0.0000
  3785 N       -1.0529  34.7559   0.3804   N         1 RES1   0.0000
  3786 C5       8.6220  37.5531   0.9636   C         1 RES1   0.0000
  3787 H5       8.2462  37.3679   0.1345   H         1 RES1   0.0000
  3788 C6       9.5692  36.7328   1.5185   C         1 RES1   0.0000
  3789 H6       9.8439  35.9783   1.0503   H         1 RES1   0.0000
  3790 H6      10.7818  36.4203   3.1342   H         1 RES1   0.0000
  3791 C1       4.7737  37.1868   0.1014   C         1 RES1   0.0000
  3792 H1       5.2783  36.9578   0.8470   H         1 RES1   0.0000
  3793 H5       4.2840  39.4962   2.3666   H         1 RES1   0.0000
  3794 N        7.3140  39.6634   1.4192   N         1 RES1   0.0000
  3795 H5      -7.7795  36.9127   0.8932   H         1 RES1   0.0000
  3796 H5      -4.1943  39.6064   2.6414   H         1 RES1   0.0000
  3797 Zn      -6.1031  39.7139   0.1303   Z         1 RES1   0.0000
  3798 H1       4.6679  34.5813  13.2199   H         1 RES1   0.0000
  3799 C5       2.3495  31.2187  14.7994   C         1 RES1   0.0000
  3800 H5       2.0012  31.4516  15.6285   H         1 RES1   0.0000
  3801 C6       2.1127  29.9883  14.2445   C         1 RES1   0.0000
  3802 H6       1.5966  29.3731  14.7127   H         1 RES1   0.0000
  3803 H6       2.4483  28.7818  12.6288   H         1 RES1   0.0000
  3804 H5       6.4059  34.5335  16.6562   H         1 RES1   0.0000
  3805 C1       0.1080  34.3683  15.6616   C         1 RES1   0.0000
  3806 H1       0.1621  33.8168  14.9160   H         1 RES1   0.0000
  3807 C2       0.6943  35.5748  17.2962   C         1 RES1   0.0000
  3808 C5       1.3552  36.2975  18.3366   C         1 RES1   0.0000
  3809 H5       2.2805  36.2915  18.4044   H         1 RES1   0.0000
  3810 C2       3.3495  37.1078  14.2918   C         1 RES1   0.0000
  3811 C5       2.3138  36.7594  13.3492   C         1 RES1   0.0000
  3812 H5       1.8633  35.9471  13.3964   H         1 RES1   0.0000
  3813 C6       0.6012  36.9943  19.2240   C         1 RES1   0.0000
  3814 H6       1.0299  37.4781  19.8924   H         1 RES1   0.0000
  3815 C6       2.0265  37.7031  12.3608   C         1 RES1   0.0000
  3816 H6       1.3586  37.5299  11.7382   H         1 RES1   0.0000
  3817 N        3.5231  33.4067  14.3438   N         1 RES1   0.0000
  3818 N        3.8576  36.3751  15.3826   N         1 RES1   0.0000
  3819 N        1.1897  34.7963  16.2795   N         1 RES1   0.0000
  3820 Zn       3.1418  34.5847  15.8933   Z         1 RES1   0.0000
  3821 H1      -2.2012  33.1572  18.3061   H         1 RES1   0.0000
  3822 C5      -6.2725  33.4837  16.7266   C         1 RES1   0.0000
  3823 H5      -6.2450  33.9018  15.8975   H         1 RES1   0.0000
  3824 C6      -7.4565  33.0735  17.2815   C         1 RES1   0.0000
  3825 H6      -8.2473  33.2129  16.8133   H         1 RES1   0.0000
  3826 H6      -8.3335  32.1796  18.8972   H         1 RES1   0.0000
  3827 H5      -1.3736  31.6282  14.8698   H         1 RES1   0.0000
  3828 C1      -4.6656  36.9996  15.8644   C         1 RES1   0.0000
  3829 H1      -5.1162  36.6771  16.6100   H         1 RES1   0.0000
  3830 C2      -3.3277  37.0952  14.2298   C         1 RES1   0.0000
  3831 C5      -2.3713  36.8841  13.1894   C         1 RES1   0.0000
  3832 H5      -1.9138  36.0798  13.1216   H         1 RES1   0.0000
  3833 C2      -0.6724  35.5622  17.2342   C         1 RES1   0.0000
  3834 C5      -1.4920  36.2849  18.1768   C         1 RES1   0.0000
  3835 H5      -2.4207  36.2690  18.1296   H         1 RES1   0.0000
  3836 C6      -2.1449  37.8856  12.3020   C         1 RES1   0.0000
  3837 H6      -1.5115  37.7562  11.6336   H         1 RES1   0.0000
  3838 C6      -0.8184  37.0056  19.1652   C         1 RES1   0.0000
  3839 H6      -1.3023  37.4973  19.7878   H         1 RES1   0.0000
  3840 N       -3.7909  33.5613  17.1822   N         1 RES1   0.0000
  3841 N       -1.0529  34.7559  16.1434   N         1 RES1   0.0000
  3842 N       -3.7541  36.2769  15.2465   N         1 RES1   0.0000
  3843 Zn      -2.9613  34.4805  15.6327   Z         1 RES1   0.0000
  3844 C5       8.6220  37.5531  16.7266   C         1 RES1   0.0000
  3845 H5       8.2462  37.3679  15.8975   H         1 RES1   0.0000
  3846 C6       9.5692  36.7328  17.2815   C         1 RES1   0.0000
  3847 H6       9.8439  35.9783  16.8133   H         1 RES1   0.0000
  3848 H6      10.7818  36.4203  18.8972   H         1 RES1   0.0000
  3849 C1       4.7737  37.1868  15.8644   C         1 RES1   0.0000
  3850 H1       5.2783  36.9578  16.6100   H         1 RES1   0.0000
  3851 C2       4.0219  38.2977  14.2298   C         1 RES1   0.0000
  3852 C5       3.7265  39.2314  13.1894   C         1 RES1   0.0000
  3853 H5       4.2840  39.4962  18.1296   H         1 RES1   0.0000
  3854 C6       2.7460  38.9268  12.3020   C         1 RES1   0.0000
  3855 H6       2.5414  39.5400  11.6336   H         1 RES1   0.0000
  3856 N        7.3140  39.6634  17.1822   N         1 RES1   0.0000
  3857 N        4.9438  38.3375  15.2465   N         1 RES1   0.0000
  3858 H1      -6.8691  38.3939  13.2199   H         1 RES1   0.0000
  3859 H5      -7.7795  36.9127  16.6562   H         1 RES1   0.0000
  3860 H5      -4.1943  39.6064  18.4044   H         1 RES1   0.0000
  3861 C2      -4.0219  38.2725  14.2918   C         1 RES1   0.0000
  3862 C5      -3.8058  39.3436  13.3492   C         1 RES1   0.0000
  3863 C6      -2.8449  39.1206  12.3608   C         1 RES1   0.0000
  3864 H6      -2.6610  39.7856  11.7382   H         1 RES1   0.0000
  3865 N       -4.9105  38.1988  15.3826   N         1 RES1   0.0000
  3866 Zn      -6.1031  39.7139  15.8933   Z         1 RES1   0.0000
  3867 H1       4.6679  34.5813  28.9829   H         1 RES1   0.0000
  3868 C5       2.3495  31.2187  30.5624   C         1 RES1   0.0000
  3869 H5       2.0012  31.4516  31.3915   H         1 RES1   0.0000
  3870 C6       2.1127  29.9883  30.0075   C         1 RES1   0.0000
  3871 H6       1.5966  29.3731  30.4757   H         1 RES1   0.0000
  3872 H6       2.4483  28.7818  28.3918   H         1 RES1   0.0000
  3873 C1       0.1080  34.3683  31.4246   C         1 RES1   0.0000
  3874 H1       0.1621  33.8168  30.6790   H         1 RES1   0.0000
  3875 C2       3.3495  37.1078  30.0548   C         1 RES1   0.0000
  3876 C5       2.3138  36.7594  29.1122   C         1 RES1   0.0000
  3877 H5       1.8633  35.9471  29.1594   H         1 RES1   0.0000
  3878 C6       2.0265  37.7031  28.1238   C         1 RES1   0.0000
  3879 H6       1.3586  37.5299  27.5012   H         1 RES1   0.0000
  3880 N        3.5231  33.4067  30.1068   N         1 RES1   0.0000
  3881 N        3.8576  36.3751  31.1456   N         1 RES1   0.0000
  3882 H5      -1.3736  31.6282  30.6328   H         1 RES1   0.0000
  3883 C2      -3.3277  37.0952  29.9928   C         1 RES1   0.0000
  3884 C5      -2.3713  36.8841  28.9524   C         1 RES1   0.0000
  3885 H5      -1.9138  36.0798  28.8846   H         1 RES1   0.0000
  3886 C6      -2.1449  37.8856  28.0650   C         1 RES1   0.0000
  3887 H6      -1.5115  37.7562  27.3966   H         1 RES1   0.0000
  3888 N       -3.7541  36.2769  31.0095   N         1 RES1   0.0000
  3889 Zn      -2.9613  34.4805  31.3957   Z         1 RES1   0.0000
  3890 C2       4.0219  38.2977  29.9928   C         1 RES1   0.0000
  3891 C5       3.7265  39.2314  28.9524   C         1 RES1   0.0000
  3892 C6       2.7460  38.9268  28.0650   C         1 RES1   0.0000
  3893 H6       2.5414  39.5400  27.3966   H         1 RES1   0.0000
  3894 N        4.9438  38.3375  31.0095   N         1 RES1   0.0000
  3895 H1      -6.8691  38.3939  28.9829   H         1 RES1   0.0000
  3896 C2      -4.0219  38.2725  30.0548   C         1 RES1   0.0000
  3897 C5      -3.8058  39.3436  29.1122   C         1 RES1   0.0000
  3898 C6      -2.8449  39.1206  28.1238   C         1 RES1   0.0000
  3899 H6      -2.6610  39.7856  27.5012   H         1 RES1   0.0000
  3900 N       -4.9105  38.1988  31.1456   N         1 RES1   0.0000
  3901 C2      41.9561   1.5203   1.5332   C         1 RES1   0.0000
  3902 C5      42.2515   0.5866   2.5736   C         1 RES1   0.0000
  3903 C6      43.2320   0.8912   3.4610   C         1 RES1   0.0000
  3904 H6      43.4366   0.2780   4.1294   H         1 RES1   0.0000
  3905 N       41.0342   1.4805   0.5165   N         1 RES1   0.0000
  3906 H1      41.3101   5.2367   2.5431   H         1 RES1   0.0000
  3907 C2      42.6285   2.7102   1.4712   C         1 RES1   0.0000
  3908 C5      43.6642   3.0587   2.4138   C         1 RES1   0.0000
  3909 C6      43.9515   2.1150   3.4022   C         1 RES1   0.0000
  3910 H6      44.6194   2.2882   4.0248   H         1 RES1   0.0000
  3911 N       42.1204   3.4429   0.3804   N         1 RES1   0.0000
  3912 C5      37.3560   2.2649  14.7994   C         1 RES1   0.0000
  3913 H5      37.7318   2.4501  15.6285   H         1 RES1   0.0000
  3914 C6      36.4088   3.0852  14.2445   C         1 RES1   0.0000
  3915 H6      36.1341   3.8398  14.7127   H         1 RES1   0.0000
  3916 H6      35.1962   3.3978  12.6288   H         1 RES1   0.0000
  3917 C1      41.2043   2.6313  15.6616   C         1 RES1   0.0000
  3918 H1      40.6997   2.8602  14.9160   H         1 RES1   0.0000
  3919 C2      41.9561   1.5203  17.2962   C         1 RES1   0.0000
  3920 C5      42.2515   0.5866  18.3366   C         1 RES1   0.0000
  3921 H5      41.6940   0.3218  13.3964   H         1 RES1   0.0000
  3922 C6      43.2320   0.8912  19.2240   C         1 RES1   0.0000
  3923 H6      43.4366   0.2780  19.8924   H         1 RES1   0.0000
  3924 N       38.6640   0.1546  14.3438   N         1 RES1   0.0000
  3925 N       41.0342   1.4805  16.2795   N         1 RES1   0.0000
  3926 H1      41.3101   5.2367  18.3061   H         1 RES1   0.0000
  3927 H5      39.5721   5.2845  14.8698   H         1 RES1   0.0000
  3928 H5      43.6975   3.5265  13.1216   H         1 RES1   0.0000
  3929 C2      42.6285   2.7102  17.2342   C         1 RES1   0.0000
  3930 C5      43.6642   3.0587  18.1768   C         1 RES1   0.0000
  3931 C6      43.9515   2.1150  19.1652   C         1 RES1   0.0000
  3932 H6      44.6194   2.2882  19.7878   H         1 RES1   0.0000
  3933 N       42.1204   3.4429  16.1434   N         1 RES1   0.0000
  3934 Zn      42.8362   5.2333  15.6327   Z         1 RES1   0.0000
  3935 C5      37.3560   2.2649  30.5624   C         1 RES1   0.0000
  3936 H5      37.7318   2.4501  31.3915   H         1 RES1   0.0000
  3937 C6      36.4088   3.0852  30.0075   C         1 RES1   0.0000
  3938 H6      36.1341   3.8398  30.4757   H         1 RES1   0.0000
  3939 H6      35.1962   3.3978  28.3918   H         1 RES1   0.0000
  3940 C1      41.2043   2.6313  31.4246   C         1 RES1   0.0000
  3941 H1      40.6997   2.8602  30.6790   H         1 RES1   0.0000
  3942 H5      41.6940   0.3218  29.1594   H         1 RES1   0.0000
  3943 N       38.6640   0.1546  30.1068   N         1 RES1   0.0000
  3944 H5      39.5721   5.2845  30.6328   H         1 RES1   0.0000
  3945 H5      43.6975   3.5265  28.8846   H         1 RES1   0.0000
  3946 Zn      42.8362   5.2333  31.3957   Z         1 RES1   0.0000
  3947 C2      35.1778  15.6657   1.5332   C         1 RES1   0.0000
  3948 C5      35.8387  16.3884   2.5736   C         1 RES1   0.0000
  3949 C6      35.0847  17.0852   3.4610   C         1 RES1   0.0000
  3950 H6      35.5134  17.5690   4.1294   H         1 RES1   0.0000
  3951 N       35.6732  14.8873   0.5165   N         1 RES1   0.0000
  3952 H1      32.2823  13.2481   2.5431   H         1 RES1   0.0000
  3953 C5      28.2110  13.5746   0.9636   C         1 RES1   0.0000
  3954 H5      28.2385  13.9927   0.1345   H         1 RES1   0.0000
  3955 C6      27.0270  13.1645   1.5185   C         1 RES1   0.0000
  3956 H6      26.2362  13.3039   1.0503   H         1 RES1   0.0000
  3957 H6      26.1500  12.2706   3.1342   H         1 RES1   0.0000
  3958 C1      29.8179  17.0906   0.1014   C         1 RES1   0.0000
  3959 H1      29.3673  16.7680   0.8470   H         1 RES1   0.0000
  3960 C2      33.8111  15.6531   1.4712   C         1 RES1   0.0000
  3961 C5      32.9915  16.3758   2.4138   C         1 RES1   0.0000
  3962 H5      32.0628  16.3599   2.3666   H         1 RES1   0.0000
  3963 C6      33.6651  17.0965   3.4022   C         1 RES1   0.0000
  3964 H6      33.1812  17.5883   4.0248   H         1 RES1   0.0000
  3965 N       30.6926  13.6523   1.4192   N         1 RES1   0.0000
  3966 N       33.4306  14.8468   0.3804   N         1 RES1   0.0000
  3967 H5      26.7040  17.0036   0.8932   H         1 RES1   0.0000
  3968 C2      30.4616  21.4294   1.5332   C         1 RES1   0.0000
  3969 C5      30.7570  20.4957   2.5736   C         1 RES1   0.0000
  3970 H5      30.2892  19.6973   2.6414   H         1 RES1   0.0000
  3971 C6      31.7375  20.8003   3.4610   C         1 RES1   0.0000
  3972 H6      31.9421  20.1871   4.1294   H         1 RES1   0.0000
  3973 N       29.5397  21.3896   0.5165   N         1 RES1   0.0000
  3974 Zn      28.3804  19.8048   0.1303   Z         1 RES1   0.0000
  3975 H1      29.8156  25.1458   2.5431   H         1 RES1   0.0000
  3976 C2      31.1340  22.6193   1.4712   C         1 RES1   0.0000
  3977 C5      32.1697  22.9677   2.4138   C         1 RES1   0.0000
  3978 C6      32.4570  22.0240   3.4022   C         1 RES1   0.0000
  3979 H6      33.1249  22.1972   4.0248   H         1 RES1   0.0000
  3980 N       30.6259  23.3520   0.3804   N         1 RES1   0.0000
  3981 C5      36.8330  11.3096  14.7994   C         1 RES1   0.0000
  3982 H5      36.4847  11.5426  15.6285   H         1 RES1   0.0000
  3983 C6      36.5962  10.0793  14.2445   C         1 RES1   0.0000
  3984 H6      36.0801   9.4641  14.7127   H         1 RES1   0.0000
  3985 H6      36.9318   8.8728  12.6288   H         1 RES1   0.0000
  3986 C1      34.5915  14.4592  15.6616   C         1 RES1   0.0000
  3987 H1      34.6456  13.9078  14.9160   H         1 RES1   0.0000
  3988 C2      35.1778  15.6657  17.2962   C         1 RES1   0.0000
  3989 C5      35.8387  16.3884  18.3366   C         1 RES1   0.0000
  3990 H5      36.3468  16.0380  13.3964   H         1 RES1   0.0000
  3991 C6      35.0847  17.0852  19.2240   C         1 RES1   0.0000
  3992 H6      35.5134  17.5690  19.8924   H         1 RES1   0.0000
  3993 N       38.0066  13.4976  14.3438   N         1 RES1   0.0000
  3994 N       35.6732  14.8873  16.2795   N         1 RES1   0.0000
  3995 H1      32.2823  13.2481  18.3061   H         1 RES1   0.0000
  3996 C5      28.2110  13.5746  16.7266   C         1 RES1   0.0000
  3997 H5      28.2385  13.9927  15.8975   H         1 RES1   0.0000
  3998 C6      27.0270  13.1645  17.2815   C         1 RES1   0.0000
  3999 H6      26.2362  13.3039  16.8133   H         1 RES1   0.0000
  4000 H6      26.1500  12.2706  18.8972   H         1 RES1   0.0000
  4001 H5      33.1099  11.7191  14.8698   H         1 RES1   0.0000
  4002 C1      29.8179  17.0906  15.8644   C         1 RES1   0.0000
  4003 H1      29.3673  16.7680  16.6100   H         1 RES1   0.0000
  4004 C2      31.1558  17.1861  14.2298   C         1 RES1   0.0000
  4005 C5      32.1122  16.9751  13.1894   C         1 RES1   0.0000
  4006 H5      32.5697  16.1708  13.1216   H         1 RES1   0.0000
  4007 C2      33.8111  15.6531  17.2342   C         1 RES1   0.0000
  4008 C5      32.9915  16.3758  18.1768   C         1 RES1   0.0000
  4009 H5      32.0628  16.3599  18.1296   H         1 RES1   0.0000
  4010 C6      32.3386  17.9765  12.3020   C         1 RES1   0.0000
  4011 H6      32.9720  17.8471  11.6336   H         1 RES1   0.0000
  4012 C6      33.6651  17.0965  19.1652   C         1 RES1   0.0000
  4013 H6      33.1812  17.5883  19.7878   H         1 RES1   0.0000
  4014 N       30.6926  13.6523  17.1822   N         1 RES1   0.0000
  4015 N       33.4306  14.8468  16.1434   N         1 RES1   0.0000
  4016 N       30.7294  16.3679  15.2465   N         1 RES1   0.0000
  4017 Zn      31.5222  14.5715  15.6327   Z         1 RES1   0.0000
  4018 H1      27.6144  18.4849  13.2199   H         1 RES1   0.0000
  4019 C5      25.8615  22.1740  14.7994   C         1 RES1   0.0000
  4020 H5      26.2373  22.3592  15.6285   H         1 RES1   0.0000
  4021 C6      24.9143  22.9943  14.2445   C         1 RES1   0.0000
  4022 H6      24.6396  23.7488  14.7127   H         1 RES1   0.0000
  4023 H6      23.7017  23.3068  12.6288   H         1 RES1   0.0000
  4024 H5      26.7040  17.0036  16.6562   H         1 RES1   0.0000
  4025 C1      29.7098  22.5403  15.6616   C         1 RES1   0.0000
  4026 H1      29.2052  22.7693  14.9160   H         1 RES1   0.0000
  4027 C2      30.4616  21.4294  17.2962   C         1 RES1   0.0000
  4028 C5      30.7570  20.4957  18.3366   C         1 RES1   0.0000
  4029 H5      30.2892  19.6973  18.4044   H         1 RES1   0.0000
  4030 C2      30.4616  18.3634  14.2918   C         1 RES1   0.0000
  4031 C5      30.6777  19.4345  13.3492   C         1 RES1   0.0000
  4032 H5      30.1995  20.2309  13.3964   H         1 RES1   0.0000
  4033 C6      31.7375  20.8003  19.2240   C         1 RES1   0.0000
  4034 H6      31.9421  20.1871  19.8924   H         1 RES1   0.0000
  4035 C6      31.6386  19.2115  12.3608   C         1 RES1   0.0000
  4036 H6      31.8225  19.8765  11.7382   H         1 RES1   0.0000
  4037 N       27.1695  20.0636  14.3438   N         1 RES1   0.0000
  4038 N       29.5730  18.2897  15.3826   N         1 RES1   0.0000
  4039 N       29.5397  21.3896  16.2795   N         1 RES1   0.0000
  4040 Zn      28.3804  19.8048  15.8933   Z         1 RES1   0.0000
  4041 H1      29.8156  25.1458  18.3061   H         1 RES1   0.0000
  4042 H5      28.0776  25.1935  14.8698   H         1 RES1   0.0000
  4043 H5      32.2030  23.4356  13.1216   H         1 RES1   0.0000
  4044 C2      31.1340  22.6193  17.2342   C         1 RES1   0.0000
  4045 C5      32.1697  22.9677  18.1768   C         1 RES1   0.0000
  4046 C6      32.4570  22.0240  19.1652   C         1 RES1   0.0000
  4047 H6      33.1249  22.1972  19.7878   H         1 RES1   0.0000
  4048 N       30.6259  23.3520  16.1434   N         1 RES1   0.0000
  4049 Zn      31.3417  25.1424  15.6327   Z         1 RES1   0.0000
  4050 C5      36.8330  11.3096  30.5624   C         1 RES1   0.0000
  4051 H5      36.4847  11.5426  31.3915   H         1 RES1   0.0000
  4052 C6      36.5962  10.0793  30.0075   C         1 RES1   0.0000
  4053 H6      36.0801   9.4641  30.4757   H         1 RES1   0.0000
  4054 H6      36.9318   8.8728  28.3918   H         1 RES1   0.0000
  4055 C1      34.5915  14.4592  31.4246   C         1 RES1   0.0000
  4056 H1      34.6456  13.9078  30.6790   H         1 RES1   0.0000
  4057 H5      36.3468  16.0380  29.1594   H         1 RES1   0.0000
  4058 N       38.0066  13.4976  30.1068   N         1 RES1   0.0000
  4059 H5      33.1099  11.7191  30.6328   H         1 RES1   0.0000
  4060 C2      31.1558  17.1861  29.9928   C         1 RES1   0.0000
  4061 C5      32.1122  16.9751  28.9524   C         1 RES1   0.0000
  4062 H5      32.5697  16.1708  28.8846   H         1 RES1   0.0000
  4063 C6      32.3386  17.9765  28.0650   C         1 RES1   0.0000
  4064 H6      32.9720  17.8471  27.3966   H         1 RES1   0.0000
  4065 N       30.7294  16.3679  31.0095   N         1 RES1   0.0000
  4066 Zn      31.5222  14.5715  31.3957   Z         1 RES1   0.0000
  4067 H1      27.6144  18.4849  28.9829   H         1 RES1   0.0000
  4068 C5      25.8615  22.1740  30.5624   C         1 RES1   0.0000
  4069 H5      26.2373  22.3592  31.3915   H         1 RES1   0.0000
  4070 C6      24.9143  22.9943  30.0075   C         1 RES1   0.0000
  4071 H6      24.6396  23.7488  30.4757   H         1 RES1   0.0000
  4072 H6      23.7017  23.3068  28.3918   H         1 RES1   0.0000
  4073 C1      29.7098  22.5403  31.4246   C         1 RES1   0.0000
  4074 H1      29.2052  22.7693  30.6790   H         1 RES1   0.0000
  4075 C2      30.4616  18.3634  30.0548   C         1 RES1   0.0000
  4076 C5      30.6777  19.4345  29.1122   C         1 RES1   0.0000
  4077 H5      30.1995  20.2309  29.1594   H         1 RES1   0.0000
  4078 C6      31.6386  19.2115  28.1238   C         1 RES1   0.0000
  4079 H6      31.8225  19.8765  27.5012   H         1 RES1   0.0000
  4080 N       27.1695  20.0636  30.1068   N         1 RES1   0.0000
  4081 N       29.5730  18.2897  31.1456   N         1 RES1   0.0000
  4082 H5      28.0776  25.1935  30.6328   H         1 RES1   0.0000
  4083 H5      32.2030  23.4356  28.8846   H         1 RES1   0.0000
  4084 Zn      31.3417  25.1424  31.3957   Z         1 RES1   0.0000
  4085 C2      23.6833  35.5748   1.5332   C         1 RES1   0.0000
  4086 C5      24.3442  36.2975   2.5736   C         1 RES1   0.0000
  4087 C6      23.5902  36.9943   3.4610   C         1 RES1   0.0000
  4088 H6      24.0189  37.4781   4.1294   H         1 RES1   0.0000
  4089 N       24.1787  34.7963   0.5165   N         1 RES1   0.0000
  4090 H1      20.7878  33.1572   2.5431   H         1 RES1   0.0000
  4091 C5      16.7165  33.4837   0.9636   C         1 RES1   0.0000
  4092 H5      16.7440  33.9018   0.1345   H         1 RES1   0.0000
  4093 C6      15.5325  33.0735   1.5185   C         1 RES1   0.0000
  4094 H6      14.7417  33.2129   1.0503   H         1 RES1   0.0000
  4095 H6      14.6555  32.1796   3.1342   H         1 RES1   0.0000
  4096 C1      18.3234  36.9996   0.1014   C         1 RES1   0.0000
  4097 H1      17.8728  36.6771   0.8470   H         1 RES1   0.0000
  4098 C2      22.3166  35.5622   1.4712   C         1 RES1   0.0000
  4099 C5      21.4970  36.2849   2.4138   C         1 RES1   0.0000
  4100 H5      20.5683  36.2690   2.3666   H         1 RES1   0.0000
  4101 C6      22.1706  37.0056   3.4022   C         1 RES1   0.0000
  4102 H6      21.6867  37.4973   4.0248   H         1 RES1   0.0000
  4103 N       19.1981  33.5613   1.4192   N         1 RES1   0.0000
  4104 N       21.9361  34.7559   0.3804   N         1 RES1   0.0000
  4105 H5      15.2095  36.9127   0.8932   H         1 RES1   0.0000
  4106 H5      18.7947  39.6064   2.6414   H         1 RES1   0.0000
  4107 Zn      16.8859  39.7139   0.1303   Z         1 RES1   0.0000
  4108 C5      25.3385  31.2187  14.7994   C         1 RES1   0.0000
  4109 H5      24.9902  31.4516  15.6285   H         1 RES1   0.0000
  4110 C6      25.1017  29.9883  14.2445   C         1 RES1   0.0000
  4111 H6      24.5856  29.3731  14.7127   H         1 RES1   0.0000
  4112 H6      25.4373  28.7818  12.6288   H         1 RES1   0.0000
  4113 C1      23.0970  34.3683  15.6616   C         1 RES1   0.0000
  4114 H1      23.1511  33.8168  14.9160   H         1 RES1   0.0000
  4115 C2      23.6833  35.5748  17.2962   C         1 RES1   0.0000
  4116 C5      24.3442  36.2975  18.3366   C         1 RES1   0.0000
  4117 H5      24.8523  35.9471  13.3964   H         1 RES1   0.0000
  4118 C6      23.5902  36.9943  19.2240   C         1 RES1   0.0000
  4119 H6      24.0189  37.4781  19.8924   H         1 RES1   0.0000
  4120 N       26.5121  33.4067  14.3438   N         1 RES1   0.0000
  4121 N       24.1787  34.7963  16.2795   N         1 RES1   0.0000
  4122 H1      20.7878  33.1572  18.3061   H         1 RES1   0.0000
  4123 C5      16.7165  33.4837  16.7266   C         1 RES1   0.0000
  4124 H5      16.7440  33.9018  15.8975   H         1 RES1   0.0000
  4125 C6      15.5325  33.0735  17.2815   C         1 RES1   0.0000
  4126 H6      14.7417  33.2129  16.8133   H         1 RES1   0.0000
  4127 H6      14.6555  32.1796  18.8972   H         1 RES1   0.0000
  4128 H5      21.6154  31.6282  14.8698   H         1 RES1   0.0000
  4129 C1      18.3234  36.9996  15.8644   C         1 RES1   0.0000
  4130 H1      17.8728  36.6771  16.6100   H         1 RES1   0.0000
  4131 C2      19.6613  37.0952  14.2298   C         1 RES1   0.0000
  4132 C5      20.6177  36.8841  13.1894   C         1 RES1   0.0000
  4133 H5      21.0752  36.0798  13.1216   H         1 RES1   0.0000
  4134 C2      22.3166  35.5622  17.2342   C         1 RES1   0.0000
  4135 C5      21.4970  36.2849  18.1768   C         1 RES1   0.0000
  4136 H5      20.5683  36.2690  18.1296   H         1 RES1   0.0000
  4137 C6      20.8441  37.8856  12.3020   C         1 RES1   0.0000
  4138 H6      21.4775  37.7562  11.6336   H         1 RES1   0.0000
  4139 C6      22.1706  37.0056  19.1652   C         1 RES1   0.0000
  4140 H6      21.6867  37.4973  19.7878   H         1 RES1   0.0000
  4141 N       19.1981  33.5613  17.1822   N         1 RES1   0.0000
  4142 N       21.9361  34.7559  16.1434   N         1 RES1   0.0000
  4143 N       19.2349  36.2769  15.2465   N         1 RES1   0.0000
  4144 Zn      20.0277  34.4805  15.6327   Z         1 RES1   0.0000
  4145 H1      16.1199  38.3939  13.2199   H         1 RES1   0.0000
  4146 H5      15.2095  36.9127  16.6562   H         1 RES1   0.0000
  4147 H5      18.7947  39.6064  18.4044   H         1 RES1   0.0000
  4148 C2      18.9671  38.2725  14.2918   C         1 RES1   0.0000
  4149 C5      19.1832  39.3436  13.3492   C         1 RES1   0.0000
  4150 C6      20.1441  39.1206  12.3608   C         1 RES1   0.0000
  4151 H6      20.3280  39.7856  11.7382   H         1 RES1   0.0000
  4152 N       18.0785  38.1988  15.3826   N         1 RES1   0.0000
  4153 Zn      16.8859  39.7139  15.8933   Z         1 RES1   0.0000
  4154 C5      25.3385  31.2187  30.5624   C         1 RES1   0.0000
  4155 H5      24.9902  31.4516  31.3915   H         1 RES1   0.0000
  4156 C6      25.1017  29.9883  30.0075   C         1 RES1   0.0000
  4157 H6      24.5856  29.3731  30.4757   H         1 RES1   0.0000
  4158 H6      25.4373  28.7818  28.3918   H         1 RES1   0.0000
  4159 C1      23.0970  34.3683  31.4246   C         1 RES1   0.0000
  4160 H1      23.1511  33.8168  30.6790   H         1 RES1   0.0000
  4161 H5      24.8523  35.9471  29.1594   H         1 RES1   0.0000
  4162 N       26.5121  33.4067  30.1068   N         1 RES1   0.0000
  4163 H5      21.6154  31.6282  30.6328   H         1 RES1   0.0000
  4164 C2      19.6613  37.0952  29.9928   C         1 RES1   0.0000
  4165 C5      20.6177  36.8841  28.9524   C         1 RES1   0.0000
  4166 H5      21.0752  36.0798  28.8846   H         1 RES1   0.0000
  4167 C6      20.8441  37.8856  28.0650   C         1 RES1   0.0000
  4168 H6      21.4775  37.7562  27.3966   H         1 RES1   0.0000
  4169 N       19.2349  36.2769  31.0095   N         1 RES1   0.0000
  4170 Zn      20.0277  34.4805  31.3957   Z         1 RES1   0.0000
  4171 H1      16.1199  38.3939  28.9829   H         1 RES1   0.0000
  4172 C2      18.9671  38.2725  30.0548   C         1 RES1   0.0000
  4173 C5      19.1832  39.3436  29.1122   C         1 RES1   0.0000
  4174 C6      20.1441  39.1206  28.1238   C         1 RES1   0.0000
  4175 H6      20.3280  39.7856  27.5012   H         1 RES1   0.0000
  4176 N       18.0785  38.1988  31.1456   N         1 RES1   0.0000
@<TRIPOS>BOND     1     1     2   un
     2     1    24   un
     3     3     4   un
     4     4     5   un
     5     4    22   un
     6     6     7   un
     7     6    17   un
     8     7     8   un
     9     7    18   un
    10     9    10   un
    11     9    19   un
    12    10    11   un
    13    10    12   un
    14    12    13   un
    15    12    14   un
    16    14    15   un
    17    14    21   un
    18    16  1814   un
    19    16  1829   un
    20    17  3087   un
    21    17  3095   un
    22    18  3089   un
    23    18  3091   un
    24    19    21   un
    25    19    23   un
    26    20    22   un
    27    20    24   un
    28    21  3165   un
    29    22  1745   un
    30    23  3167   un
    31    24  1761   un
    32    25    26   un
    33    25    48   un
    34    27    28   un
    35    28    29   un
    36    28    46   un
    37    30    31   un
    38    30    41   un
    39    31    32   un
    40    31    42   un
    41    33    34   un
    42    33    43   un
    43    34    35   un
    44    34    36   un
    45    36    37   un
    46    36    38   un
    47    38    39   un
    48    38    45   un
    49    40  1970   un
    50    40  1985   un
    51    41  3128   un
    52    41  3140   un
    53    42  3130   un
    54    42  3132   un
    55    43    45   un
    56    43    47   un
    57    44    46   un
    58    44    48   un
    59    45  3201   un
    60    46  1901   un
    61    47  3208   un
    62    48  1917   un
    63    49    50   un
    64    49    72   un
    65    51    52   un
    66    52    53   un
    67    52    70   un
    68    54    55   un
    69    54    65   un
    70    55    56   un
    71    55    66   un
    72    57    58   un
    73    57    67   un
    74    58    59   un
    75    58    60   un
    76    60    61   un
    77    60    62   un
    78    62    63   un
    79    62    69   un
    80    64  2120   un
    81    64  2135   un
    82    65  3191   un
    83    65  3199   un
    84    66  3193   un
    85    66  3195   un
    86    67    69   un
    87    67    71   un
    88    68    70   un
    89    68    72   un
    90    69  3303   un
    91    70  2057   un
    92    71  3305   un
    93    72  2073   un
    94    73    74   un
    95    73    96   un
    96    75    76   un
    97    76    77   un
    98    76    94   un
    99    78    79   un
   100    78    89   un
   101    79    80   un
   102    79    90   un
   103    81    82   un
   104    81    91   un
   105    82    83   un
   106    82    84   un
   107    84    85   un
   108    84    86   un
   109    86    87   un
   110    86    93   un
   111    88  2258   un
   112    88  2273   un
   113    89  3255   un
   114    89  3267   un
   115    90  3257   un
   116    90  3259   un
   117    91    93   un
   118    91    95   un
   119    92    94   un
   120    92    96   un
   121    93  3316   un
   122    94  2195   un
   123    95  3323   un
   124    96  2211   un
   125    97    98   un
   126    97   114   un
   127    99   100   un
   128    99   116   un
   129   100   101   un
   130   100   267   un
   131   102   103   un
   132   102   117   un
   133   102   136   un
   134   104   105   un
   135   104   117   un
   136   104   128   un
   137   105   106   un
   138   105   110   un
   139   107   108   un
   140   107   115   un
   141   107   154   un
   142   108   109   un
   143   108   112   un
   144   110   111   un
   145   110   133   un
   146   112   113   un
   147   112   160   un
   148   114   118   un
   149   115   118   un
   150   115   152   un
   151   116   118   un
   152   116   257   un
   153   117   118   un
   154   119   120   un
   155   119   135   un
   156   120   121   un
   157   123   124   un
   158   123   138   un
   159   123   223   un
   160   125   126   un
   161   125   138   un
   162   125   215   un
   163   126   127   un
   164   126   131   un
   165   128   129   un
   166   128   136   un
   167   129   130   un
   168   129   133   un
   169   131   132   un
   170   131   220   un
   171   133   134   un
   172   135   139   un
   173   136   139   un
   174   137   139   un
   175   137   261   un
   176   138   139   un
   177   140   141   un
   178   140   164   un
   179   140   281   un
   180   142   143   un
   181   142   164   un
   182   142   273   un
   183   143   144   un
   184   143   145   un
   185   145   146   un
   186   145   147   un
   187   147   148   un
   188   147   277   un
   189   149   150   un
   190   149   166   un
   191   149   264   un
   192   150   151   un
   193   150   269   un
   194   152   153   un
   195   152   167   un
   196   154   155   un
   197   154   167   un
   198   155   156   un
   199   155   160   un
   200   157   158   un
   201   157   165   un
   202   157   183   un
   203   158   159   un
   204   158   162   un
   205   160   161   un
   206   162   163   un
   207   162   189   un
   208   164   168   un
   209   165   168   un
   210   165   181   un
   211   166   168   un
   212   166   259   un
   213   167   168   un
   214   169   170   un
   215   169   193   un
   216   169   279   un
   217   171   172   un
   218   171   193   un
   219   171   271   un
   220   172   173   un
   221   172   174   un
   222   174   175   un
   223   174   176   un
   224   176   177   un
   225   176   275   un
   226   178   179   un
   227   178   195   un
   228   178   263   un
   229   179   180   un
   230   179   268   un
   231   181   182   un
   232   181   196   un
   233   183   184   un
   234   183   196   un
   235   184   185   un
   236   184   189   un
   237   186   187   un
   238   186   194   un
   239   186   241   un
   240   187   188   un
   241   187   191   un
   242   189   190   un
   243   191   192   un
   244   191   247   un
   245   193   197   un
   246   194   197   un
   247   194   239   un
   248   195   197   un
   249   195   258   un
   250   196   197   un
   251   198   199   un
   252   198   222   un
   253   198   280   un
   254   200   201   un
   255   200   222   un
   256   200   272   un
   257   201   202   un
   258   201   203   un
   259   203   204   un
   260   203   205   un
   261   205   206   un
   262   205   276   un
   263   207   208   un
   264   207   224   un
   265   207   262   un
   266   208   209   un
   267   208   266   un
   268   210   211   un
   269   210   225   un
   270   210   252   un
   271   212   213   un
   272   212   225   un
   273   212   244   un
   274   213   214   un
   275   213   218   un
   276   215   216   un
   277   215   223   un
   278   216   217   un
   279   216   220   un
   280   218   219   un
   281   218   249   un
   282   220   221   un
   283   222   226   un
   284   223   226   un
   285   224   226   un
   286   224   256   un
   287   225   226   un
   288   227   228   un
   289   227   251   un
   290   227   282   un
   291   229   230   un
   292   229   251   un
   293   229   274   un
   294   230   231   un
   295   230   232   un
   296   232   233   un
   297   232   234   un
   298   234   235   un
   299   234   278   un
   300   236   237   un
   301   236   253   un
   302   236   265   un
   303   237   238   un
   304   237   270   un
   305   239   240   un
   306   239   254   un
   307   241   242   un
   308   241   254   un
   309   242   243   un
   310   242   247   un
   311   244   245   un
   312   244   252   un
   313   245   246   un
   314   245   249   un
   315   247   248   un
   316   249   250   un
   317   251   255   un
   318   252   255   un
   319   253   255   un
   320   253   260   un
   321   254   255   un
   322   256  1717   un
   323   256  1738   un
   324   257  1681   un
   325   258  2445   un
   326   258  2466   un
   327   259  3368   un
   328   259  3381   un
   329   260  3495   un
   330   260  3508   un
   331   261  3073   un
   332   262  1718   un
   333   262  1738   un
   334   263  2446   un
   335   263  2466   un
   336   264  3369   un
   337   264  3381   un
   338   265  3496   un
   339   265  3508   un
   340   266  1720   un
   341   266  1722   un
   342   267  1682   un
   343   267  1683   un
   344   268  2448   un
   345   268  2450   un
   346   269  3371   un
   347   269  3373   un
   348   270  3498   un
   349   270  3500   un
   350   271   275   un
   351   271   279   un
   352   272   276   un
   353   272   280   un
   354   273   277   un
   355   273   281   un
   356   274   278   un
   357   274   282   un
   358   275  3487   un
   359   276  3079   un
   360   277  2376   un
   361   278  1771   un
   362   279  3494   un
   363   280  3086   un
   364   281  2392   un
   365   282  1787   un
   366   283   284   un
   367   283   300   un
   368   285   286   un
   369   285   302   un
   370   286   287   un
   371   286   453   un
   372   288   289   un
   373   288   303   un
   374   288   322   un
   375   290   291   un
   376   290   303   un
   377   290   314   un
   378   291   292   un
   379   291   296   un
   380   293   294   un
   381   293   301   un
   382   293   340   un
   383   294   295   un
   384   294   298   un
   385   296   297   un
   386   296   319   un
   387   298   299   un
   388   298   346   un
   389   300   304   un
   390   301   304   un
   391   301   338   un
   392   302   304   un
   393   302   443   un
   394   303   304   un
   395   305   306   un
   396   305   321   un
   397   306   307   un
   398   309   310   un
   399   309   324   un
   400   309   409   un
   401   311   312   un
   402   311   324   un
   403   311   401   un
   404   312   313   un
   405   312   317   un
   406   314   315   un
   407   314   322   un
   408   315   316   un
   409   315   319   un
   410   317   318   un
   411   317   406   un
   412   319   320   un
   413   321   325   un
   414   322   325   un
   415   323   325   un
   416   323   447   un
   417   324   325   un
   418   326   327   un
   419   326   350   un
   420   326   467   un
   421   328   329   un
   422   328   350   un
   423   328   459   un
   424   329   330   un
   425   329   331   un
   426   331   332   un
   427   331   333   un
   428   333   334   un
   429   333   463   un
   430   335   336   un
   431   335   352   un
   432   335   450   un
   433   336   337   un
   434   336   455   un
   435   338   339   un
   436   338   353   un
   437   340   341   un
   438   340   353   un
   439   341   342   un
   440   341   346   un
   441   343   344   un
   442   343   351   un
   443   343   369   un
   444   344   345   un
   445   344   348   un
   446   346   347   un
   447   348   349   un
   448   348   375   un
   449   350   354   un
   450   351   354   un
   451   351   367   un
   452   352   354   un
   453   352   445   un
   454   353   354   un
   455   355   356   un
   456   355   379   un
   457   355   465   un
   458   357   358   un
   459   357   379   un
   460   357   457   un
   461   358   359   un
   462   358   360   un
   463   360   361   un
   464   360   362   un
   465   362   363   un
   466   362   461   un
   467   364   365   un
   468   364   381   un
   469   364   449   un
   470   365   366   un
   471   365   454   un
   472   367   368   un
   473   367   382   un
   474   369   370   un
   475   369   382   un
   476   370   371   un
   477   370   375   un
   478   372   373   un
   479   372   380   un
   480   372   427   un
   481   373   374   un
   482   373   377   un
   483   375   376   un
   484   377   378   un
   485   377   433   un
   486   379   383   un
   487   380   383   un
   488   380   425   un
   489   381   383   un
   490   381   444   un
   491   382   383   un
   492   384   385   un
   493   384   408   un
   494   384   466   un
   495   386   387   un
   496   386   408   un
   497   386   458   un
   498   387   388   un
   499   387   389   un
   500   389   390   un
   501   389   391   un
   502   391   392   un
   503   391   462   un
   504   393   394   un
   505   393   410   un
   506   393   448   un
   507   394   395   un
   508   394   452   un
   509   396   397   un
   510   396   411   un
   511   396   438   un
   512   398   399   un
   513   398   411   un
   514   398   430   un
   515   399   400   un
   516   399   404   un
   517   401   402   un
   518   401   409   un
   519   402   403   un
   520   402   406   un
   521   404   405   un
   522   404   435   un
   523   406   407   un
   524   408   412   un
   525   409   412   un
   526   410   412   un
   527   410   442   un
   528   411   412   un
   529   413   414   un
   530   413   437   un
   531   413   468   un
   532   415   416   un
   533   415   437   un
   534   415   460   un
   535   416   417   un
   536   416   418   un
   537   418   419   un
   538   418   420   un
   539   420   421   un
   540   420   464   un
   541   422   423   un
   542   422   439   un
   543   422   451   un
   544   423   424   un
   545   423   456   un
   546   425   426   un
   547   425   440   un
   548   427   428   un
   549   427   440   un
   550   428   429   un
   551   428   433   un
   552   430   431   un
   553   430   438   un
   554   431   432   un
   555   431   435   un
   556   433   434   un
   557   435   436   un
   558   437   441   un
   559   438   441   un
   560   439   441   un
   561   439   446   un
   562   440   441   un
   563   442  1873   un
   564   442  1894   un
   565   443  1699   un
   566   444  2619   un
   567   444  2640   un
   568   445  3429   un
   569   445  3448   un
   570   446  3579   un
   571   446  3598   un
   572   447  3096   un
   573   448  1874   un
   574   448  1894   un
   575   449  2620   un
   576   449  2640   un
   577   450  3430   un
   578   450  3448   un
   579   451  3580   un
   580   451  3598   un
   581   452  1876   un
   582   452  1878   un
   583   453  1700   un
   584   453  1701   un
   585   454  2622   un
   586   454  2624   un
   587   455  3432   un
   588   455  3434   un
   589   456  3582   un
   590   456  3584   un
   591   457   461   un
   592   457   465   un
   593   458   462   un
   594   458   466   un
   595   459   463   un
   596   459   467   un
   597   460   464   un
   598   460   468   un
   599   461  3562   un
   600   462  3111   un
   601   463  2550   un
   602   464  1927   un
   603   465  3578   un
   604   466  3127   un
   605   467  2566   un
   606   468  1943   un
   607   469   470   un
   608   469   493   un
   609   469   675   un
   610   471   472   un
   611   471   493   un
   612   471   663   un
   613   472   473   un
   614   472   474   un
   615   474   475   un
   616   474   476   un
   617   476   477   un
   618   476   669   un
   619   478   479   un
   620   478   495   un
   621   478   650   un
   622   479   480   un
   623   479   656   un
   624   481   482   un
   625   481   496   un
   626   481   523   un
   627   483   484   un
   628   483   496   un
   629   483   515   un
   630   484   485   un
   631   484   489   un
   632   486   487   un
   633   486   494   un
   634   486   541   un
   635   487   488   un
   636   487   491   un
   637   489   490   un
   638   489   520   un
   639   491   492   un
   640   491   547   un
   641   493   497   un
   642   494   497   un
   643   494   539   un
   644   495   497   un
   645   495   644   un
   646   496   497   un
   647   498   499   un
   648   498   522   un
   649   498   676   un
   650   500   501   un
   651   500   522   un
   652   500   664   un
   653   501   502   un
   654   501   503   un
   655   503   504   un
   656   503   505   un
   657   505   506   un
   658   505   670   un
   659   507   508   un
   660   507   524   un
   661   507   654   un
   662   508   509   un
   663   508   660   un
   664   510   511   un
   665   510   525   un
   666   510   610   un
   667   512   513   un
   668   512   525   un
   669   512   602   un
   670   513   514   un
   671   513   518   un
   672   515   516   un
   673   515   523   un
   674   516   517   un
   675   516   520   un
   676   518   519   un
   677   518   607   un
   678   520   521   un
   679   522   526   un
   680   523   526   un
   681   524   526   un
   682   524   648   un
   683   525   526   un
   684   527   528   un
   685   527   551   un
   686   527   677   un
   687   529   530   un
   688   529   551   un
   689   529   665   un
   690   530   531   un
   691   530   532   un
   692   532   533   un
   693   532   534   un
   694   534   535   un
   695   534   671   un
   696   536   537   un
   697   536   553   un
   698   536   652   un
   699   537   538   un
   700   537   658   un
   701   539   540   un
   702   539   554   un
   703   541   542   un
   704   541   554   un
   705   542   543   un
   706   542   547   un
   707   544   545   un
   708   544   552   un
   709   544   570   un
   710   545   546   un
   711   545   549   un
   712   547   548   un
   713   549   550   un
   714   549   576   un
   715   551   555   un
   716   552   555   un
   717   552   568   un
   718   553   555   un
   719   553   646   un
   720   554   555   un
   721   556   557   un
   722   556   580   un
   723   556   673   un
   724   558   559   un
   725   558   580   un
   726   558   661   un
   727   559   560   un
   728   559   561   un
   729   561   562   un
   730   561   563   un
   731   563   564   un
   732   563   667   un
   733   565   566   un
   734   565   582   un
   735   565   651   un
   736   566   567   un
   737   566   657   un
   738   568   569   un
   739   568   583   un
   740   570   571   un
   741   570   583   un
   742   571   572   un
   743   571   576   un
   744   573   574   un
   745   573   581   un
   746   573   628   un
   747   574   575   un
   748   574   578   un
   749   576   577   un
   750   578   579   un
   751   578   634   un
   752   580   584   un
   753   581   584   un
   754   581   626   un
   755   582   584   un
   756   582   645   un
   757   583   584   un
   758   585   586   un
   759   585   609   un
   760   585   674   un
   761   587   588   un
   762   587   609   un
   763   587   662   un
   764   588   589   un
   765   588   590   un
   766   590   591   un
   767   590   592   un
   768   592   593   un
   769   592   668   un
   770   594   595   un
   771   594   611   un
   772   594   649   un
   773   595   596   un
   774   595   655   un
   775   597   598   un
   776   597   612   un
   777   597   639   un
   778   599   600   un
   779   599   612   un
   780   599   631   un
   781   600   601   un
   782   600   605   un
   783   602   603   un
   784   602   610   un
   785   603   604   un
   786   603   607   un
   787   605   606   un
   788   605   636   un
   789   607   608   un
   790   609   613   un
   791   610   613   un
   792   611   613   un
   793   611   643   un
   794   612   613   un
   795   614   615   un
   796   614   638   un
   797   614   678   un
   798   616   617   un
   799   616   638   un
   800   616   666   un
   801   617   618   un
   802   617   619   un
   803   619   620   un
   804   619   621   un
   805   621   622   un
   806   621   672   un
   807   623   624   un
   808   623   640   un
   809   623   653   un
   810   624   625   un
   811   624   659   un
   812   626   627   un
   813   626   641   un
   814   628   629   un
   815   628   641   un
   816   629   630   un
   817   629   634   un
   818   631   632   un
   819   631   639   un
   820   632   633   un
   821   632   636   un
   822   634   635   un
   823   636   637   un
   824   638   642   un
   825   639   642   un
   826   640   642   un
   827   640   647   un
   828   641   642   un
   829   643  2029   un
   830   643  2050   un
   831   644  1788   un
   832   644  1809   un
   833   645  2787   un
   834   645  2808   un
   835   646  3541   un
   836   646  3554   un
   837   647  3771   un
   838   647  3784   un
   839   648  3168   un
   840   648  3181   un
   841   649  2030   un
   842   649  2050   un
   843   650  1789   un
   844   650  1809   un
   845   651  2788   un
   846   651  2808   un
   847   652  3542   un
   848   652  3554   un
   849   653  3772   un
   850   653  3784   un
   851   654  3169   un
   852   654  3181   un
   853   655  2032   un
   854   655  2034   un
   855   656  1791   un
   856   656  1793   un
   857   657  2790   un
   858   657  2792   un
   859   658  3544   un
   860   658  3546   un
   861   659  3774   un
   862   659  3776   un
   863   660  3171   un
   864   660  3173   un
   865   661   667   un
   866   661   673   un
   867   662   668   un
   868   662   674   un
   869   663   669   un
   870   663   675   un
   871   664   670   un
   872   664   676   un
   873   665   671   un
   874   665   677   un
   875   666   672   un
   876   666   678   un
   877   667  3763   un
   878   668  3183   un
   879   669  3533   un
   880   670  1843   un
   881   671  2724   un
   882   672  2083   un
   883   673  3770   un
   884   674  3190   un
   885   675  3540   un
   886   676  1859   un
   887   677  2740   un
   888   678  2099   un
   889   679   680   un
   890   679   703   un
   891   679   885   un
   892   681   682   un
   893   681   703   un
   894   681   873   un
   895   682   683   un
   896   682   684   un
   897   684   685   un
   898   684   686   un
   899   686   687   un
   900   686   879   un
   901   688   689   un
   902   688   705   un
   903   688   860   un
   904   689   690   un
   905   689   866   un
   906   691   692   un
   907   691   706   un
   908   691   733   un
   909   693   694   un
   910   693   706   un
   911   693   725   un
   912   694   695   un
   913   694   699   un
   914   696   697   un
   915   696   704   un
   916   696   751   un
   917   697   698   un
   918   697   701   un
   919   699   700   un
   920   699   730   un
   921   701   702   un
   922   701   757   un
   923   703   707   un
   924   704   707   un
   925   704   749   un
   926   705   707   un
   927   705   854   un
   928   706   707   un
   929   708   709   un
   930   708   732   un
   931   708   886   un
   932   710   711   un
   933   710   732   un
   934   710   874   un
   935   711   712   un
   936   711   713   un
   937   713   714   un
   938   713   715   un
   939   715   716   un
   940   715   880   un
   941   717   718   un
   942   717   734   un
   943   717   864   un
   944   718   719   un
   945   718   870   un
   946   720   721   un
   947   720   735   un
   948   720   820   un
   949   722   723   un
   950   722   735   un
   951   722   812   un
   952   723   724   un
   953   723   728   un
   954   725   726   un
   955   725   733   un
   956   726   727   un
   957   726   730   un
   958   728   729   un
   959   728   817   un
   960   730   731   un
   961   732   736   un
   962   733   736   un
   963   734   736   un
   964   734   858   un
   965   735   736   un
   966   737   738   un
   967   737   761   un
   968   737   887   un
   969   739   740   un
   970   739   761   un
   971   739   875   un
   972   740   741   un
   973   740   742   un
   974   742   743   un
   975   742   744   un
   976   744   745   un
   977   744   881   un
   978   746   747   un
   979   746   763   un
   980   746   862   un
   981   747   748   un
   982   747   868   un
   983   749   750   un
   984   749   764   un
   985   751   752   un
   986   751   764   un
   987   752   753   un
   988   752   757   un
   989   754   755   un
   990   754   762   un
   991   754   780   un
   992   755   756   un
   993   755   759   un
   994   757   758   un
   995   759   760   un
   996   759   786   un
   997   761   765   un
   998   762   765   un
   999   762   778   un
  1000   763   765   un
  1001   763   856   un
  1002   764   765   un
  1003   766   767   un
  1004   766   790   un
  1005   766   883   un
  1006   768   769   un
  1007   768   790   un
  1008   768   871   un
  1009   769   770   un
  1010   769   771   un
  1011   771   772   un
  1012   771   773   un
  1013   773   774   un
  1014   773   877   un
  1015   775   776   un
  1016   775   792   un
  1017   775   861   un
  1018   776   777   un
  1019   776   867   un
  1020   778   779   un
  1021   778   793   un
  1022   780   781   un
  1023   780   793   un
  1024   781   782   un
  1025   781   786   un
  1026   783   784   un
  1027   783   791   un
  1028   783   838   un
  1029   784   785   un
  1030   784   788   un
  1031   786   787   un
  1032   788   789   un
  1033   788   844   un
  1034   790   794   un
  1035   791   794   un
  1036   791   836   un
  1037   792   794   un
  1038   792   855   un
  1039   793   794   un
  1040   795   796   un
  1041   795   819   un
  1042   795   884   un
  1043   797   798   un
  1044   797   819   un
  1045   797   872   un
  1046   798   799   un
  1047   798   800   un
  1048   800   801   un
  1049   800   802   un
  1050   802   803   un
  1051   802   878   un
  1052   804   805   un
  1053   804   821   un
  1054   804   859   un
  1055   805   806   un
  1056   805   865   un
  1057   807   808   un
  1058   807   822   un
  1059   807   849   un
  1060   809   810   un
  1061   809   822   un
  1062   809   841   un
  1063   810   811   un
  1064   810   815   un
  1065   812   813   un
  1066   812   820   un
  1067   813   814   un
  1068   813   817   un
  1069   815   816   un
  1070   815   846   un
  1071   817   818   un
  1072   819   823   un
  1073   820   823   un
  1074   821   823   un
  1075   821   853   un
  1076   822   823   un
  1077   824   825   un
  1078   824   848   un
  1079   824   888   un
  1080   826   827   un
  1081   826   848   un
  1082   826   876   un
  1083   827   828   un
  1084   827   829   un
  1085   829   830   un
  1086   829   831   un
  1087   831   832   un
  1088   831   882   un
  1089   833   834   un
  1090   833   850   un
  1091   833   863   un
  1092   834   835   un
  1093   834   869   un
  1094   836   837   un
  1095   836   851   un
  1096   838   839   un
  1097   838   851   un
  1098   839   840   un
  1099   839   844   un
  1100   841   842   un
  1101   841   849   un
  1102   842   843   un
  1103   842   846   un
  1104   844   845   un
  1105   846   847   un
  1106   848   852   un
  1107   849   852   un
  1108   850   852   un
  1109   850   857   un
  1110   851   852   un
  1111   853  2167   un
  1112   853  2188   un
  1113   854  1944   un
  1114   854  1965   un
  1115   855  2943   un
  1116   855  2964   un
  1117   856  3671   un
  1118   856  3690   un
  1119   857  3821   un
  1120   857  3840   un
  1121   858  3209   un
  1122   858  3228   un
  1123   859  2168   un
  1124   859  2188   un
  1125   860  1945   un
  1126   860  1965   un
  1127   861  2944   un
  1128   861  2964   un
  1129   862  3672   un
  1130   862  3690   un
  1131   863  3822   un
  1132   863  3840   un
  1133   864  3210   un
  1134   864  3228   un
  1135   865  2170   un
  1136   865  2172   un
  1137   866  1947   un
  1138   866  1949   un
  1139   867  2946   un
  1140   867  2948   un
  1141   868  3674   un
  1142   868  3676   un
  1143   869  3824   un
  1144   869  3826   un
  1145   870  3212   un
  1146   870  3214   un
  1147   871   877   un
  1148   871   883   un
  1149   872   878   un
  1150   872   884   un
  1151   873   879   un
  1152   873   885   un
  1153   874   880   un
  1154   874   886   un
  1155   875   881   un
  1156   875   887   un
  1157   876   882   un
  1158   876   888   un
  1159   877  3804   un
  1160   878  3238   un
  1161   879  3654   un
  1162   880  1999   un
  1163   881  2880   un
  1164   882  2221   un
  1165   883  3820   un
  1166   884  3254   un
  1167   885  3670   un
  1168   886  2015   un
  1169   887  2896   un
  1170   888  2237   un
  1171   889   890   un
  1172   889   907   un
  1173   890   891   un
  1174   890   892   un
  1175   892   893   un
  1176   892   894   un
  1177   894   895   un
  1178   894   909   un
  1179   896   897   un
  1180   896   912   un
  1181   898   899   un
  1182   899   900   un
  1183   899   910   un
  1184   901   902   un
  1185   901   905   un
  1186   902   903   un
  1187   902   906   un
  1188   904  2100   un
  1189   904  2115   un
  1190   905  3306   un
  1191   905  3314   un
  1192   906  3308   un
  1193   906  3310   un
  1194   907   909   un
  1195   907   911   un
  1196   908   910   un
  1197   908   912   un
  1198   909  3795   un
  1199   910  2142   un
  1200   911  3797   un
  1201   912  2158   un
  1202   913   914   un
  1203   913   931   un
  1204   914   915   un
  1205   914   916   un
  1206   916   917   un
  1207   916   918   un
  1208   918   919   un
  1209   918   933   un
  1210   920   921   un
  1211   920   936   un
  1212   922   923   un
  1213   923   924   un
  1214   923   934   un
  1215   925   926   un
  1216   925   929   un
  1217   926   927   un
  1218   926   930   un
  1219   928  2238   un
  1220   928  2253   un
  1221   929  3324   un
  1222   929  3336   un
  1223   930  3326   un
  1224   930  3328   un
  1225   931   933   un
  1226   931   935   un
  1227   932   934   un
  1228   932   936   un
  1229   933  3859   un
  1230   934  2280   un
  1231   935  3866   un
  1232   936  2296   un
  1233   937   938   un
  1234   937   954   un
  1235   939   940   un
  1236   939   956   un
  1237   940   941   un
  1238   940  1090   un
  1239   942   943   un
  1240   942   957   un
  1241   942   976   un
  1242   944   945   un
  1243   944   957   un
  1244   944   968   un
  1245   945   946   un
  1246   945   950   un
  1247   947   948   un
  1248   947   955   un
  1249   947   986   un
  1250   948   949   un
  1251   948   952   un
  1252   950   951   un
  1253   950   973   un
  1254   952   953   un
  1255   952   992   un
  1256   954   958   un
  1257   955   958   un
  1258   955   984   un
  1259   956   958   un
  1260   956  1082   un
  1261   957   958   un
  1262   959   960   un
  1263   959   975   un
  1264   960   961   un
  1265   963   964   un
  1266   963   978   un
  1267   963  1048   un
  1268   965   966   un
  1269   965   978   un
  1270   965  1040   un
  1271   966   967   un
  1272   966   971   un
  1273   968   969   un
  1274   968   976   un
  1275   969   970   un
  1276   969   973   un
  1277   971   972   un
  1278   971  1045   un
  1279   973   974   un
  1280   975   979   un
  1281   976   979   un
  1282   977   979   un
  1283   977  1086   un
  1284   978   979   un
  1285   980   981   un
  1286   980   996   un
  1287   981   982   un
  1288   984   985   un
  1289   984   999   un
  1290   986   987   un
  1291   986   999   un
  1292   987   988   un
  1293   987   992   un
  1294   989   990   un
  1295   989   997   un
  1296   989  1008   un
  1297   990   991   un
  1298   990   994   un
  1299   992   993   un
  1300   994   995   un
  1301   994  1014   un
  1302   996  1000   un
  1303   997  1000   un
  1304   997  1006   un
  1305   998  1000   un
  1306   998  1084   un
  1307   999  1000   un
  1308  1001  1002   un
  1309  1001  1018   un
  1310  1003  1004   un
  1311  1003  1020   un
  1312  1004  1005   un
  1313  1004  1091   un
  1314  1006  1007   un
  1315  1006  1021   un
  1316  1008  1009   un
  1317  1008  1021   un
  1318  1009  1010   un
  1319  1009  1014   un
  1320  1011  1012   un
  1321  1011  1019   un
  1322  1011  1066   un
  1323  1012  1013   un
  1324  1012  1016   un
  1325  1014  1015   un
  1326  1016  1017   un
  1327  1016  1072   un
  1328  1018  1022   un
  1329  1019  1022   un
  1330  1019  1064   un
  1331  1020  1022   un
  1332  1020  1083   un
  1333  1021  1022   un
  1334  1023  1024   un
  1335  1023  1047   un
  1336  1023  1097   un
  1337  1025  1026   un
  1338  1025  1047   un
  1339  1025  1093   un
  1340  1026  1027   un
  1341  1026  1028   un
  1342  1028  1029   un
  1343  1028  1030   un
  1344  1030  1031   un
  1345  1030  1095   un
  1346  1032  1033   un
  1347  1032  1049   un
  1348  1032  1087   un
  1349  1033  1034   un
  1350  1033  1089   un
  1351  1035  1036   un
  1352  1035  1050   un
  1353  1035  1077   un
  1354  1037  1038   un
  1355  1037  1050   un
  1356  1037  1069   un
  1357  1038  1039   un
  1358  1038  1043   un
  1359  1040  1041   un
  1360  1040  1048   un
  1361  1041  1042   un
  1362  1041  1045   un
  1363  1043  1044   un
  1364  1043  1074   un
  1365  1045  1046   un
  1366  1047  1051   un
  1367  1048  1051   un
  1368  1049  1051   un
  1369  1049  1081   un
  1370  1050  1051   un
  1371  1052  1053   un
  1372  1052  1076   un
  1373  1052  1098   un
  1374  1054  1055   un
  1375  1054  1076   un
  1376  1054  1094   un
  1377  1055  1056   un
  1378  1055  1057   un
  1379  1057  1058   un
  1380  1057  1059   un
  1381  1059  1060   un
  1382  1059  1096   un
  1383  1061  1062   un
  1384  1061  1078   un
  1385  1061  1088   un
  1386  1062  1063   un
  1387  1062  1092   un
  1388  1064  1065   un
  1389  1064  1079   un
  1390  1066  1067   un
  1391  1066  1079   un
  1392  1067  1068   un
  1393  1067  1072   un
  1394  1069  1070   un
  1395  1069  1077   un
  1396  1070  1071   un
  1397  1070  1074   un
  1398  1072  1073   un
  1399  1074  1075   un
  1400  1076  1080   un
  1401  1077  1080   un
  1402  1078  1080   un
  1403  1078  1085   un
  1404  1079  1080   un
  1405  1081  2341   un
  1406  1081  2362   un
  1407  1082  2305   un
  1408  1083  3008   un
  1409  1084  3906   un
  1410  1085  3952   un
  1411  1085  3965   un
  1412  1086  3349   un
  1413  1087  2342   un
  1414  1087  2362   un
  1415  1088  3953   un
  1416  1088  3965   un
  1417  1089  2344   un
  1418  1089  2346   un
  1419  1090  2306   un
  1420  1090  2307   un
  1421  1091  3009   un
  1422  1091  3010   un
  1423  1092  3955   un
  1424  1092  3957   un
  1425  1093  1095   un
  1426  1093  1097   un
  1427  1094  1096   un
  1428  1094  1098   un
  1429  1095  3355   un
  1430  1096  2402   un
  1431  1097  3362   un
  1432  1098  2418   un
  1433  1099  1100   un
  1434  1099  1116   un
  1435  1101  1102   un
  1436  1101  1118   un
  1437  1102  1103   un
  1438  1102  1252   un
  1439  1104  1105   un
  1440  1104  1119   un
  1441  1104  1138   un
  1442  1106  1107   un
  1443  1106  1119   un
  1444  1106  1130   un
  1445  1107  1108   un
  1446  1107  1112   un
  1447  1109  1110   un
  1448  1109  1117   un
  1449  1109  1148   un
  1450  1110  1111   un
  1451  1110  1114   un
  1452  1112  1113   un
  1453  1112  1135   un
  1454  1114  1115   un
  1455  1114  1154   un
  1456  1116  1120   un
  1457  1117  1120   un
  1458  1117  1146   un
  1459  1118  1120   un
  1460  1118  1244   un
  1461  1119  1120   un
  1462  1121  1122   un
  1463  1121  1137   un
  1464  1122  1123   un
  1465  1125  1126   un
  1466  1125  1140   un
  1467  1125  1210   un
  1468  1127  1128   un
  1469  1127  1140   un
  1470  1127  1202   un
  1471  1128  1129   un
  1472  1128  1133   un
  1473  1130  1131   un
  1474  1130  1138   un
  1475  1131  1132   un
  1476  1131  1135   un
  1477  1133  1134   un
  1478  1133  1207   un
  1479  1135  1136   un
  1480  1137  1141   un
  1481  1138  1141   un
  1482  1139  1141   un
  1483  1139  1248   un
  1484  1140  1141   un
  1485  1142  1143   un
  1486  1142  1158   un
  1487  1143  1144   un
  1488  1146  1147   un
  1489  1146  1161   un
  1490  1148  1149   un
  1491  1148  1161   un
  1492  1149  1150   un
  1493  1149  1154   un
  1494  1151  1152   un
  1495  1151  1159   un
  1496  1151  1170   un
  1497  1152  1153   un
  1498  1152  1156   un
  1499  1154  1155   un
  1500  1156  1157   un
  1501  1156  1176   un
  1502  1158  1162   un
  1503  1159  1162   un
  1504  1159  1168   un
  1505  1160  1162   un
  1506  1160  1246   un
  1507  1161  1162   un
  1508  1163  1164   un
  1509  1163  1180   un
  1510  1165  1166   un
  1511  1165  1182   un
  1512  1166  1167   un
  1513  1166  1253   un
  1514  1168  1169   un
  1515  1168  1183   un
  1516  1170  1171   un
  1517  1170  1183   un
  1518  1171  1172   un
  1519  1171  1176   un
  1520  1173  1174   un
  1521  1173  1181   un
  1522  1173  1228   un
  1523  1174  1175   un
  1524  1174  1178   un
  1525  1176  1177   un
  1526  1178  1179   un
  1527  1178  1234   un
  1528  1180  1184   un
  1529  1181  1184   un
  1530  1181  1226   un
  1531  1182  1184   un
  1532  1182  1245   un
  1533  1183  1184   un
  1534  1185  1186   un
  1535  1185  1209   un
  1536  1185  1259   un
  1537  1187  1188   un
  1538  1187  1209   un
  1539  1187  1255   un
  1540  1188  1189   un
  1541  1188  1190   un
  1542  1190  1191   un
  1543  1190  1192   un
  1544  1192  1193   un
  1545  1192  1257   un
  1546  1194  1195   un
  1547  1194  1211   un
  1548  1194  1249   un
  1549  1195  1196   un
  1550  1195  1251   un
  1551  1197  1198   un
  1552  1197  1212   un
  1553  1197  1239   un
  1554  1199  1200   un
  1555  1199  1212   un
  1556  1199  1231   un
  1557  1200  1201   un
  1558  1200  1205   un
  1559  1202  1203   un
  1560  1202  1210   un
  1561  1203  1204   un
  1562  1203  1207   un
  1563  1205  1206   un
  1564  1205  1236   un
  1565  1207  1208   un
  1566  1209  1213   un
  1567  1210  1213   un
  1568  1211  1213   un
  1569  1211  1243   un
  1570  1212  1213   un
  1571  1214  1215   un
  1572  1214  1238   un
  1573  1214  1260   un
  1574  1216  1217   un
  1575  1216  1238   un
  1576  1216  1256   un
  1577  1217  1218   un
  1578  1217  1219   un
  1579  1219  1220   un
  1580  1219  1221   un
  1581  1221  1222   un
  1582  1221  1258   un
  1583  1223  1224   un
  1584  1223  1240   un
  1585  1223  1250   un
  1586  1224  1225   un
  1587  1224  1254   un
  1588  1226  1227   un
  1589  1226  1241   un
  1590  1228  1229   un
  1591  1228  1241   un
  1592  1229  1230   un
  1593  1229  1234   un
  1594  1231  1232   un
  1595  1231  1239   un
  1596  1232  1233   un
  1597  1232  1236   un
  1598  1234  1235   un
  1599  1236  1237   un
  1600  1238  1242   un
  1601  1239  1242   un
  1602  1240  1242   un
  1603  1240  1247   un
  1604  1241  1242   un
  1605  1243  2515   un
  1606  1243  2536   un
  1607  1244  2323   un
  1608  1245  3026   un
  1609  1246  3926   un
  1610  1247  3995   un
  1611  1247  4014   un
  1612  1248  3383   un
  1613  1249  2516   un
  1614  1249  2536   un
  1615  1250  3996   un
  1616  1250  4014   un
  1617  1251  2518   un
  1618  1251  2520   un
  1619  1252  2324   un
  1620  1252  2325   un
  1621  1253  3027   un
  1622  1253  3028   un
  1623  1254  3998   un
  1624  1254  4000   un
  1625  1255  1257   un
  1626  1255  1259   un
  1627  1256  1258   un
  1628  1256  1260   un
  1629  1257  3398   un
  1630  1258  2576   un
  1631  1259  3414   un
  1632  1260  2592   un
  1633  1261  1262   un
  1634  1261  1285   un
  1635  1261  1444   un
  1636  1263  1264   un
  1637  1263  1285   un
  1638  1263  1436   un
  1639  1264  1265   un
  1640  1264  1266   un
  1641  1266  1267   un
  1642  1266  1268   un
  1643  1268  1269   un
  1644  1268  1440   un
  1645  1270  1271   un
  1646  1270  1287   un
  1647  1270  1427   un
  1648  1271  1272   un
  1649  1271  1431   un
  1650  1273  1274   un
  1651  1273  1288   un
  1652  1273  1315   un
  1653  1275  1276   un
  1654  1275  1288   un
  1655  1275  1307   un
  1656  1276  1277   un
  1657  1276  1281   un
  1658  1278  1279   un
  1659  1278  1286   un
  1660  1278  1325   un
  1661  1279  1280   un
  1662  1279  1283   un
  1663  1281  1282   un
  1664  1281  1312   un
  1665  1283  1284   un
  1666  1283  1331   un
  1667  1285  1289   un
  1668  1286  1289   un
  1669  1286  1323   un
  1670  1287  1289   un
  1671  1287  1421   un
  1672  1288  1289   un
  1673  1290  1291   un
  1674  1290  1314   un
  1675  1290  1445   un
  1676  1292  1293   un
  1677  1292  1314   un
  1678  1292  1437   un
  1679  1293  1294   un
  1680  1293  1295   un
  1681  1295  1296   un
  1682  1295  1297   un
  1683  1297  1298   un
  1684  1297  1441   un
  1685  1299  1300   un
  1686  1299  1316   un
  1687  1299  1429   un
  1688  1300  1301   un
  1689  1300  1434   un
  1690  1302  1303   un
  1691  1302  1317   un
  1692  1302  1387   un
  1693  1304  1305   un
  1694  1304  1317   un
  1695  1304  1379   un
  1696  1305  1306   un
  1697  1305  1310   un
  1698  1307  1308   un
  1699  1307  1315   un
  1700  1308  1309   un
  1701  1308  1312   un
  1702  1310  1311   un
  1703  1310  1384   un
  1704  1312  1313   un
  1705  1314  1318   un
  1706  1315  1318   un
  1707  1316  1318   un
  1708  1316  1425   un
  1709  1317  1318   un
  1710  1319  1320   un
  1711  1319  1335   un
  1712  1320  1321   un
  1713  1323  1324   un
  1714  1323  1338   un
  1715  1325  1326   un
  1716  1325  1338   un
  1717  1326  1327   un
  1718  1326  1331   un
  1719  1328  1329   un
  1720  1328  1336   un
  1721  1328  1347   un
  1722  1329  1330   un
  1723  1329  1333   un
  1724  1331  1332   un
  1725  1333  1334   un
  1726  1333  1353   un
  1727  1335  1339   un
  1728  1336  1339   un
  1729  1336  1345   un
  1730  1337  1339   un
  1731  1337  1423   un
  1732  1338  1339   un
  1733  1340  1341   un
  1734  1340  1357   un
  1735  1342  1343   un
  1736  1342  1359   un
  1737  1343  1344   un
  1738  1343  1432   un
  1739  1345  1346   un
  1740  1345  1360   un
  1741  1347  1348   un
  1742  1347  1360   un
  1743  1348  1349   un
  1744  1348  1353   un
  1745  1350  1351   un
  1746  1350  1358   un
  1747  1350  1405   un
  1748  1351  1352   un
  1749  1351  1355   un
  1750  1353  1354   un
  1751  1355  1356   un
  1752  1355  1411   un
  1753  1357  1361   un
  1754  1358  1361   un
  1755  1358  1403   un
  1756  1359  1361   un
  1757  1359  1422   un
  1758  1360  1361   un
  1759  1362  1363   un
  1760  1362  1386   un
  1761  1362  1443   un
  1762  1364  1365   un
  1763  1364  1386   un
  1764  1364  1435   un
  1765  1365  1366   un
  1766  1365  1367   un
  1767  1367  1368   un
  1768  1367  1369   un
  1769  1369  1370   un
  1770  1369  1439   un
  1771  1371  1372   un
  1772  1371  1388   un
  1773  1371  1426   un
  1774  1372  1373   un
  1775  1372  1430   un
  1776  1374  1375   un
  1777  1374  1389   un
  1778  1374  1416   un
  1779  1376  1377   un
  1780  1376  1389   un
  1781  1376  1408   un
  1782  1377  1378   un
  1783  1377  1382   un
  1784  1379  1380   un
  1785  1379  1387   un
  1786  1380  1381   un
  1787  1380  1384   un
  1788  1382  1383   un
  1789  1382  1413   un
  1790  1384  1385   un
  1791  1386  1390   un
  1792  1387  1390   un
  1793  1388  1390   un
  1794  1388  1420   un
  1795  1389  1390   un
  1796  1391  1392   un
  1797  1391  1415   un
  1798  1391  1446   un
  1799  1393  1394   un
  1800  1393  1415   un
  1801  1393  1438   un
  1802  1394  1395   un
  1803  1394  1396   un
  1804  1396  1397   un
  1805  1396  1398   un
  1806  1398  1399   un
  1807  1398  1442   un
  1808  1400  1401   un
  1809  1400  1417   un
  1810  1400  1428   un
  1811  1401  1402   un
  1812  1401  1433   un
  1813  1403  1404   un
  1814  1403  1418   un
  1815  1405  1406   un
  1816  1405  1418   un
  1817  1406  1407   un
  1818  1406  1411   un
  1819  1408  1409   un
  1820  1408  1416   un
  1821  1409  1410   un
  1822  1409  1413   un
  1823  1411  1412   un
  1824  1413  1414   un
  1825  1415  1419   un
  1826  1416  1419   un
  1827  1417  1419   un
  1828  1417  1424   un
  1829  1418  1419   un
  1830  1420  2689   un
  1831  1420  2710   un
  1832  1421  2419   un
  1833  1421  2440   un
  1834  1422  3044   un
  1835  1423  3975   un
  1836  1424  4090   un
  1837  1424  4103   un
  1838  1425  3510   un
  1839  1425  3523   un
  1840  1426  2690   un
  1841  1426  2710   un
  1842  1427  2420   un
  1843  1427  2440   un
  1844  1428  4091   un
  1845  1428  4103   un
  1846  1429  3511   un
  1847  1429  3523   un
  1848  1430  2692   un
  1849  1430  2694   un
  1850  1431  2422   un
  1851  1431  2424   un
  1852  1432  3045   un
  1853  1432  3046   un
  1854  1433  4093   un
  1855  1433  4095   un
  1856  1434  3513   un
  1857  1434  3515   un
  1858  1435  1439   un
  1859  1435  1443   un
  1860  1436  1440   un
  1861  1436  1444   un
  1862  1437  1441   un
  1863  1437  1445   un
  1864  1438  1442   un
  1865  1438  1446   un
  1866  1439  3525   un
  1867  1440  3967   un
  1868  1441  2480   un
  1869  1442  2750   un
  1870  1443  3532   un
  1871  1444  3974   un
  1872  1445  2496   un
  1873  1446  2766   un
  1874  1447  1448   un
  1875  1447  1471   un
  1876  1447  1630   un
  1877  1449  1450   un
  1878  1449  1471   un
  1879  1449  1622   un
  1880  1450  1451   un
  1881  1450  1452   un
  1882  1452  1453   un
  1883  1452  1454   un
  1884  1454  1455   un
  1885  1454  1626   un
  1886  1456  1457   un
  1887  1456  1473   un
  1888  1456  1613   un
  1889  1457  1458   un
  1890  1457  1617   un
  1891  1459  1460   un
  1892  1459  1474   un
  1893  1459  1501   un
  1894  1461  1462   un
  1895  1461  1474   un
  1896  1461  1493   un
  1897  1462  1463   un
  1898  1462  1467   un
  1899  1464  1465   un
  1900  1464  1472   un
  1901  1464  1511   un
  1902  1465  1466   un
  1903  1465  1469   un
  1904  1467  1468   un
  1905  1467  1498   un
  1906  1469  1470   un
  1907  1469  1517   un
  1908  1471  1475   un
  1909  1472  1475   un
  1910  1472  1509   un
  1911  1473  1475   un
  1912  1473  1607   un
  1913  1474  1475   un
  1914  1476  1477   un
  1915  1476  1500   un
  1916  1476  1631   un
  1917  1478  1479   un
  1918  1478  1500   un
  1919  1478  1623   un
  1920  1479  1480   un
  1921  1479  1481   un
  1922  1481  1482   un
  1923  1481  1483   un
  1924  1483  1484   un
  1925  1483  1627   un
  1926  1485  1486   un
  1927  1485  1502   un
  1928  1485  1615   un
  1929  1486  1487   un
  1930  1486  1620   un
  1931  1488  1489   un
  1932  1488  1503   un
  1933  1488  1573   un
  1934  1490  1491   un
  1935  1490  1503   un
  1936  1490  1565   un
  1937  1491  1492   un
  1938  1491  1496   un
  1939  1493  1494   un
  1940  1493  1501   un
  1941  1494  1495   un
  1942  1494  1498   un
  1943  1496  1497   un
  1944  1496  1570   un
  1945  1498  1499   un
  1946  1500  1504   un
  1947  1501  1504   un
  1948  1502  1504   un
  1949  1502  1611   un
  1950  1503  1504   un
  1951  1505  1506   un
  1952  1505  1521   un
  1953  1506  1507   un
  1954  1509  1510   un
  1955  1509  1524   un
  1956  1511  1512   un
  1957  1511  1524   un
  1958  1512  1513   un
  1959  1512  1517   un
  1960  1514  1515   un
  1961  1514  1522   un
  1962  1514  1533   un
  1963  1515  1516   un
  1964  1515  1519   un
  1965  1517  1518   un
  1966  1519  1520   un
  1967  1519  1539   un
  1968  1521  1525   un
  1969  1522  1525   un
  1970  1522  1531   un
  1971  1523  1525   un
  1972  1523  1609   un
  1973  1524  1525   un
  1974  1526  1527   un
  1975  1526  1543   un
  1976  1528  1529   un
  1977  1528  1545   un
  1978  1529  1530   un
  1979  1529  1618   un
  1980  1531  1532   un
  1981  1531  1546   un
  1982  1533  1534   un
  1983  1533  1546   un
  1984  1534  1535   un
  1985  1534  1539   un
  1986  1536  1537   un
  1987  1536  1544   un
  1988  1536  1591   un
  1989  1537  1538   un
  1990  1537  1541   un
  1991  1539  1540   un
  1992  1541  1542   un
  1993  1541  1597   un
  1994  1543  1547   un
  1995  1544  1547   un
  1996  1544  1589   un
  1997  1545  1547   un
  1998  1545  1608   un
  1999  1546  1547   un
  2000  1548  1549   un
  2001  1548  1572   un
  2002  1548  1629   un
  2003  1550  1551   un
  2004  1550  1572   un
  2005  1550  1621   un
  2006  1551  1552   un
  2007  1551  1553   un
  2008  1553  1554   un
  2009  1553  1555   un
  2010  1555  1556   un
  2011  1555  1625   un
  2012  1557  1558   un
  2013  1557  1574   un
  2014  1557  1612   un
  2015  1558  1559   un
  2016  1558  1616   un
  2017  1560  1561   un
  2018  1560  1575   un
  2019  1560  1602   un
  2020  1562  1563   un
  2021  1562  1575   un
  2022  1562  1594   un
  2023  1563  1564   un
  2024  1563  1568   un
  2025  1565  1566   un
  2026  1565  1573   un
  2027  1566  1567   un
  2028  1566  1570   un
  2029  1568  1569   un
  2030  1568  1599   un
  2031  1570  1571   un
  2032  1572  1576   un
  2033  1573  1576   un
  2034  1574  1576   un
  2035  1574  1606   un
  2036  1575  1576   un
  2037  1577  1578   un
  2038  1577  1601   un
  2039  1577  1632   un
  2040  1579  1580   un
  2041  1579  1601   un
  2042  1579  1624   un
  2043  1580  1581   un
  2044  1580  1582   un
  2045  1582  1583   un
  2046  1582  1584   un
  2047  1584  1585   un
  2048  1584  1628   un
  2049  1586  1587   un
  2050  1586  1603   un
  2051  1586  1614   un
  2052  1587  1588   un
  2053  1587  1619   un
  2054  1589  1590   un
  2055  1589  1604   un
  2056  1591  1592   un
  2057  1591  1604   un
  2058  1592  1593   un
  2059  1592  1597   un
  2060  1594  1595   un
  2061  1594  1602   un
  2062  1595  1596   un
  2063  1595  1599   un
  2064  1597  1598   un
  2065  1599  1600   un
  2066  1601  1605   un
  2067  1602  1605   un
  2068  1603  1605   un
  2069  1603  1610   un
  2070  1604  1605   un
  2071  1606  2845   un
  2072  1606  2866   un
  2073  1607  2593   un
  2074  1607  2614   un
  2075  1608  3062   un
  2076  1609  4041   un
  2077  1610  4122   un
  2078  1610  4141   un
  2079  1611  3602   un
  2080  1611  3621   un
  2081  1612  2846   un
  2082  1612  2866   un
  2083  1613  2594   un
  2084  1613  2614   un
  2085  1614  4123   un
  2086  1614  4141   un
  2087  1615  3603   un
  2088  1615  3621   un
  2089  1616  2848   un
  2090  1616  2850   un
  2091  1617  2596   un
  2092  1617  2598   un
  2093  1618  3063   un
  2094  1618  3064   un
  2095  1619  4125   un
  2096  1619  4127   un
  2097  1620  3605   un
  2098  1620  3607   un
  2099  1621  1625   un
  2100  1621  1629   un
  2101  1622  1626   un
  2102  1622  1630   un
  2103  1623  1627   un
  2104  1623  1631   un
  2105  1624  1628   un
  2106  1624  1632   un
  2107  1625  3631   un
  2108  1626  4024   un
  2109  1627  2654   un
  2110  1628  2906   un
  2111  1629  3647   un
  2112  1630  4040   un
  2113  1631  2670   un
  2114  1632  2922   un
  2115  1633  1634   un
  2116  1633  1651   un
  2117  1634  1635   un
  2118  1634  1636   un
  2119  1636  1637   un
  2120  1636  1638   un
  2121  1638  1639   un
  2122  1638  1653   un
  2123  1640  1641   un
  2124  1640  1656   un
  2125  1642  1643   un
  2126  1643  1644   un
  2127  1643  1654   un
  2128  1645  1646   un
  2129  1645  1649   un
  2130  1646  1647   un
  2131  1646  1650   un
  2132  1648  2767   un
  2133  1648  2782   un
  2134  1649  3786   un
  2135  1649  3794   un
  2136  1650  3788   un
  2137  1650  3790   un
  2138  1651  1653   un
  2139  1651  1655   un
  2140  1652  1654   un
  2141  1652  1656   un
  2142  1653  4105   un
  2143  1654  2815   un
  2144  1655  4107   un
  2145  1656  2831   un
  2146  1657  1658   un
  2147  1657  1675   un
  2148  1658  1659   un
  2149  1658  1660   un
  2150  1660  1661   un
  2151  1660  1662   un
  2152  1662  1663   un
  2153  1662  1677   un
  2154  1664  1665   un
  2155  1664  1680   un
  2156  1666  1667   un
  2157  1667  1668   un
  2158  1667  1678   un
  2159  1669  1670   un
  2160  1669  1673   un
  2161  1670  1671   un
  2162  1670  1674   un
  2163  1672  2923   un
  2164  1672  2938   un
  2165  1673  3844   un
  2166  1673  3856   un
  2167  1674  3846   un
  2168  1674  3848   un
  2169  1675  1677   un
  2170  1675  1679   un
  2171  1676  1678   un
  2172  1676  1680   un
  2173  1677  4146   un
  2174  1678  2971   un
  2175  1679  4153   un
  2176  1680  2987   un
  2177  1684  1685   un
  2178  1684  1694   un
  2179  1685  1686   un
  2180  1685  1695   un
  2181  1687  1688   un
  2182  1687  1696   un
  2183  1688  1689   un
  2184  1688  1690   un
  2185  1690  1691   un
  2186  1690  1692   un
  2187  1692  1693   un
  2188  1692  1697   un
  2189  1694  3415   un
  2190  1694  3427   un
  2191  1695  3417   un
  2192  1695  3419   un
  2193  1696  1697   un
  2194  1696  1698   un
  2195  1697  3097   un
  2196  1698  3104   un
  2197  1702  1703   un
  2198  1702  1712   un
  2199  1703  1704   un
  2200  1703  1713   un
  2201  1705  1706   un
  2202  1705  1714   un
  2203  1706  1707   un
  2204  1706  1708   un
  2205  1708  1709   un
  2206  1708  1710   un
  2207  1710  1711   un
  2208  1710  1715   un
  2209  1712  3470   un
  2210  1712  3478   un
  2211  1713  3472   un
  2212  1713  3474   un
  2213  1714  1715   un
  2214  1714  1716   un
  2215  1715  3142   un
  2216  1716  3144   un
  2217  1718  1719   un
  2218  1718  1720   un
  2219  1720  1721   un
  2220  1723  1724   un
  2221  1723  1740   un
  2222  1723  1863   un
  2223  1724  1725   un
  2224  1724  1865   un
  2225  1726  1727   un
  2226  1726  1741   un
  2227  1726  1759   un
  2228  1728  1729   un
  2229  1728  1741   un
  2230  1728  1751   un
  2231  1729  1730   un
  2232  1729  1734   un
  2233  1731  1732   un
  2234  1731  1739   un
  2235  1731  1774   un
  2236  1732  1733   un
  2237  1732  1736   un
  2238  1734  1735   un
  2239  1734  1756   un
  2240  1736  1737   un
  2241  1736  1780   un
  2242  1738  1742   un
  2243  1739  1742   un
  2244  1739  1772   un
  2245  1740  1742   un
  2246  1740  1861   un
  2247  1741  1742   un
  2248  1743  1744   un
  2249  1743  1758   un
  2250  1746  1747   un
  2251  1746  1760   un
  2252  1746  1830   un
  2253  1748  1749   un
  2254  1748  1760   un
  2255  1748  1822   un
  2256  1749  1750   un
  2257  1749  1754   un
  2258  1751  1752   un
  2259  1751  1759   un
  2260  1752  1753   un
  2261  1752  1756   un
  2262  1754  1755   un
  2263  1754  1827   un
  2264  1756  1757   un
  2265  1758  1761   un
  2266  1759  1761   un
  2267  1760  1761   un
  2268  1762  1763   un
  2269  1762  1784   un
  2270  1762  1871   un
  2271  1764  1765   un
  2272  1764  1784   un
  2273  1764  1867   un
  2274  1765  1766   un
  2275  1765  1767   un
  2276  1767  1768   un
  2277  1767  1769   un
  2278  1769  1770   un
  2279  1769  1869   un
  2280  1772  1773   un
  2281  1772  1786   un
  2282  1774  1775   un
  2283  1774  1786   un
  2284  1775  1776   un
  2285  1775  1780   un
  2286  1777  1778   un
  2287  1777  1785   un
  2288  1777  1799   un
  2289  1778  1779   un
  2290  1778  1782   un
  2291  1780  1781   un
  2292  1782  1783   un
  2293  1782  1805   un
  2294  1784  1787   un
  2295  1785  1787   un
  2296  1785  1797   un
  2297  1786  1787   un
  2298  1789  1790   un
  2299  1789  1791   un
  2300  1791  1792   un
  2301  1794  1795   un
  2302  1794  1811   un
  2303  1794  1864   un
  2304  1795  1796   un
  2305  1795  1866   un
  2306  1797  1798   un
  2307  1797  1812   un
  2308  1799  1800   un
  2309  1799  1812   un
  2310  1800  1801   un
  2311  1800  1805   un
  2312  1802  1803   un
  2313  1802  1810   un
  2314  1802  1846   un
  2315  1803  1804   un
  2316  1803  1807   un
  2317  1805  1806   un
  2318  1807  1808   un
  2319  1807  1852   un
  2320  1809  1813   un
  2321  1810  1813   un
  2322  1810  1844   un
  2323  1811  1813   un
  2324  1811  1862   un
  2325  1812  1813   un
  2326  1814  1815   un
  2327  1817  1818   un
  2328  1817  1832   un
  2329  1817  1857   un
  2330  1819  1820   un
  2331  1819  1832   un
  2332  1819  1849   un
  2333  1820  1821   un
  2334  1820  1825   un
  2335  1822  1823   un
  2336  1822  1830   un
  2337  1823  1824   un
  2338  1823  1827   un
  2339  1825  1826   un
  2340  1825  1854   un
  2341  1827  1828   un
  2342  1829  1833   un
  2343  1830  1833   un
  2344  1831  1833   un
  2345  1831  1860   un
  2346  1832  1833   un
  2347  1834  1835   un
  2348  1834  1856   un
  2349  1834  1872   un
  2350  1836  1837   un
  2351  1836  1856   un
  2352  1836  1868   un
  2353  1837  1838   un
  2354  1837  1839   un
  2355  1839  1840   un
  2356  1839  1841   un
  2357  1841  1842   un
  2358  1841  1870   un
  2359  1844  1845   un
  2360  1844  1858   un
  2361  1846  1847   un
  2362  1846  1858   un
  2363  1847  1848   un
  2364  1847  1852   un
  2365  1849  1850   un
  2366  1849  1857   un
  2367  1850  1851   un
  2368  1850  1854   un
  2369  1852  1853   un
  2370  1854  1855   un
  2371  1856  1859   un
  2372  1857  1859   un
  2373  1858  1859   un
  2374  1860  3200   un
  2375  1861  3105   un
  2376  1861  3124   un
  2377  1862  3648   un
  2378  1862  3667   un
  2379  1863  3106   un
  2380  1863  3124   un
  2381  1864  3649   un
  2382  1864  3667   un
  2383  1865  3108   un
  2384  1865  3110   un
  2385  1866  3651   un
  2386  1866  3653   un
  2387  1867  1869   un
  2388  1867  1871   un
  2389  1868  1870   un
  2390  1868  1872   un
  2391  1869  3585   un
  2392  1870  3215   un
  2393  1871  3601   un
  2394  1872  3231   un
  2395  1874  1875   un
  2396  1874  1876   un
  2397  1876  1877   un
  2398  1879  1880   un
  2399  1879  1896   un
  2400  1879  2019   un
  2401  1880  1881   un
  2402  1880  2021   un
  2403  1882  1883   un
  2404  1882  1897   un
  2405  1882  1915   un
  2406  1884  1885   un
  2407  1884  1897   un
  2408  1884  1907   un
  2409  1885  1886   un
  2410  1885  1890   un
  2411  1887  1888   un
  2412  1887  1895   un
  2413  1887  1930   un
  2414  1888  1889   un
  2415  1888  1892   un
  2416  1890  1891   un
  2417  1890  1912   un
  2418  1892  1893   un
  2419  1892  1936   un
  2420  1894  1898   un
  2421  1895  1898   un
  2422  1895  1928   un
  2423  1896  1898   un
  2424  1896  2017   un
  2425  1897  1898   un
  2426  1899  1900   un
  2427  1899  1914   un
  2428  1902  1903   un
  2429  1902  1916   un
  2430  1902  1986   un
  2431  1904  1905   un
  2432  1904  1916   un
  2433  1904  1978   un
  2434  1905  1906   un
  2435  1905  1910   un
  2436  1907  1908   un
  2437  1907  1915   un
  2438  1908  1909   un
  2439  1908  1912   un
  2440  1910  1911   un
  2441  1910  1983   un
  2442  1912  1913   un
  2443  1914  1917   un
  2444  1915  1917   un
  2445  1916  1917   un
  2446  1918  1919   un
  2447  1918  1940   un
  2448  1918  2027   un
  2449  1920  1921   un
  2450  1920  1940   un
  2451  1920  2023   un
  2452  1921  1922   un
  2453  1921  1923   un
  2454  1923  1924   un
  2455  1923  1925   un
  2456  1925  1926   un
  2457  1925  2025   un
  2458  1928  1929   un
  2459  1928  1942   un
  2460  1930  1931   un
  2461  1930  1942   un
  2462  1931  1932   un
  2463  1931  1936   un
  2464  1933  1934   un
  2465  1933  1941   un
  2466  1933  1955   un
  2467  1934  1935   un
  2468  1934  1938   un
  2469  1936  1937   un
  2470  1938  1939   un
  2471  1938  1961   un
  2472  1940  1943   un
  2473  1941  1943   un
  2474  1941  1953   un
  2475  1942  1943   un
  2476  1945  1946   un
  2477  1945  1947   un
  2478  1947  1948   un
  2479  1950  1951   un
  2480  1950  1967   un
  2481  1950  2020   un
  2482  1951  1952   un
  2483  1951  2022   un
  2484  1953  1954   un
  2485  1953  1968   un
  2486  1955  1956   un
  2487  1955  1968   un
  2488  1956  1957   un
  2489  1956  1961   un
  2490  1958  1959   un
  2491  1958  1966   un
  2492  1958  2002   un
  2493  1959  1960   un
  2494  1959  1963   un
  2495  1961  1962   un
  2496  1963  1964   un
  2497  1963  2008   un
  2498  1965  1969   un
  2499  1966  1969   un
  2500  1966  2000   un
  2501  1967  1969   un
  2502  1967  2018   un
  2503  1968  1969   un
  2504  1970  1971   un
  2505  1973  1974   un
  2506  1973  1988   un
  2507  1973  2013   un
  2508  1975  1976   un
  2509  1975  1988   un
  2510  1975  2005   un
  2511  1976  1977   un
  2512  1976  1981   un
  2513  1978  1979   un
  2514  1978  1986   un
  2515  1979  1980   un
  2516  1979  1983   un
  2517  1981  1982   un
  2518  1981  2010   un
  2519  1983  1984   un
  2520  1985  1989   un
  2521  1986  1989   un
  2522  1987  1989   un
  2523  1987  2016   un
  2524  1988  1989   un
  2525  1990  1991   un
  2526  1990  2012   un
  2527  1990  2028   un
  2528  1992  1993   un
  2529  1992  2012   un
  2530  1992  2024   un
  2531  1993  1994   un
  2532  1993  1995   un
  2533  1995  1996   un
  2534  1995  1997   un
  2535  1997  1998   un
  2536  1997  2026   un
  2537  2000  2001   un
  2538  2000  2014   un
  2539  2002  2003   un
  2540  2002  2014   un
  2541  2003  2004   un
  2542  2003  2008   un
  2543  2005  2006   un
  2544  2005  2013   un
  2545  2006  2007   un
  2546  2006  2010   un
  2547  2008  2009   un
  2548  2010  2011   un
  2549  2012  2015   un
  2550  2013  2015   un
  2551  2014  2015   un
  2552  2016  3269   un
  2553  2017  3145   un
  2554  2017  3158   un
  2555  2018  3740   un
  2556  2018  3753   un
  2557  2019  3146   un
  2558  2019  3158   un
  2559  2020  3741   un
  2560  2020  3753   un
  2561  2021  3148   un
  2562  2021  3150   un
  2563  2022  3743   un
  2564  2022  3745   un
  2565  2023  2025   un
  2566  2023  2027   un
  2567  2024  2026   un
  2568  2024  2028   un
  2569  2025  3709   un
  2570  2026  3275   un
  2571  2027  3716   un
  2572  2028  3282   un
  2573  2030  2031   un
  2574  2030  2032   un
  2575  2032  2033   un
  2576  2035  2036   un
  2577  2035  2052   un
  2578  2035  2162   un
  2579  2036  2037   un
  2580  2036  2163   un
  2581  2038  2039   un
  2582  2038  2053   un
  2583  2038  2071   un
  2584  2040  2041   un
  2585  2040  2053   un
  2586  2040  2063   un
  2587  2041  2042   un
  2588  2041  2046   un
  2589  2043  2044   un
  2590  2043  2051   un
  2591  2043  2086   un
  2592  2044  2045   un
  2593  2044  2048   un
  2594  2046  2047   un
  2595  2046  2068   un
  2596  2048  2049   un
  2597  2048  2092   un
  2598  2050  2054   un
  2599  2051  2054   un
  2600  2051  2084   un
  2601  2052  2054   un
  2602  2052  2160   un
  2603  2053  2054   un
  2604  2055  2056   un
  2605  2055  2070   un
  2606  2058  2059   un
  2607  2058  2072   un
  2608  2058  2136   un
  2609  2060  2061   un
  2610  2060  2072   un
  2611  2060  2128   un
  2612  2061  2062   un
  2613  2061  2066   un
  2614  2063  2064   un
  2615  2063  2071   un
  2616  2064  2065   un
  2617  2064  2068   un
  2618  2066  2067   un
  2619  2066  2133   un
  2620  2068  2069   un
  2621  2070  2073   un
  2622  2071  2073   un
  2623  2072  2073   un
  2624  2074  2075   un
  2625  2074  2096   un
  2626  2074  2166   un
  2627  2076  2077   un
  2628  2076  2096   un
  2629  2076  2164   un
  2630  2077  2078   un
  2631  2077  2079   un
  2632  2079  2080   un
  2633  2079  2081   un
  2634  2081  2082   un
  2635  2081  2165   un
  2636  2084  2085   un
  2637  2084  2098   un
  2638  2086  2087   un
  2639  2086  2098   un
  2640  2087  2088   un
  2641  2087  2092   un
  2642  2089  2090   un
  2643  2089  2097   un
  2644  2089  2105   un
  2645  2090  2091   un
  2646  2090  2094   un
  2647  2092  2093   un
  2648  2094  2095   un
  2649  2094  2111   un
  2650  2096  2099   un
  2651  2097  2099   un
  2652  2097  2103   un
  2653  2098  2099   un
  2654  2100  2101   un
  2655  2103  2104   un
  2656  2103  2118   un
  2657  2105  2106   un
  2658  2105  2118   un
  2659  2106  2107   un
  2660  2106  2111   un
  2661  2108  2109   un
  2662  2108  2116   un
  2663  2108  2145   un
  2664  2109  2110   un
  2665  2109  2113   un
  2666  2111  2112   un
  2667  2113  2114   un
  2668  2113  2151   un
  2669  2115  2119   un
  2670  2116  2119   un
  2671  2116  2143   un
  2672  2117  2119   un
  2673  2117  2161   un
  2674  2118  2119   un
  2675  2120  2121   un
  2676  2123  2124   un
  2677  2123  2138   un
  2678  2123  2156   un
  2679  2125  2126   un
  2680  2125  2138   un
  2681  2125  2148   un
  2682  2126  2127   un
  2683  2126  2131   un
  2684  2128  2129   un
  2685  2128  2136   un
  2686  2129  2130   un
  2687  2129  2133   un
  2688  2131  2132   un
  2689  2131  2153   un
  2690  2133  2134   un
  2691  2135  2139   un
  2692  2136  2139   un
  2693  2137  2139   un
  2694  2137  2159   un
  2695  2138  2139   un
  2696  2140  2141   un
  2697  2140  2155   un
  2698  2143  2144   un
  2699  2143  2157   un
  2700  2145  2146   un
  2701  2145  2157   un
  2702  2146  2147   un
  2703  2146  2151   un
  2704  2148  2149   un
  2705  2148  2156   un
  2706  2149  2150   un
  2707  2149  2153   un
  2708  2151  2152   un
  2709  2153  2154   un
  2710  2155  2158   un
  2711  2156  2158   un
  2712  2157  2158   un
  2713  2159  3315   un
  2714  2160  3232   un
  2715  2160  3251   un
  2716  2161  3858   un
  2717  2162  3233   un
  2718  2162  3251   un
  2719  2163  3235   un
  2720  2163  3237   un
  2721  2164  2165   un
  2722  2164  2166   un
  2723  2165  3827   un
  2724  2166  3843   un
  2725  2168  2169   un
  2726  2168  2170   un
  2727  2170  2171   un
  2728  2173  2174   un
  2729  2173  2190   un
  2730  2173  2300   un
  2731  2174  2175   un
  2732  2174  2301   un
  2733  2176  2177   un
  2734  2176  2191   un
  2735  2176  2209   un
  2736  2178  2179   un
  2737  2178  2191   un
  2738  2178  2201   un
  2739  2179  2180   un
  2740  2179  2184   un
  2741  2181  2182   un
  2742  2181  2189   un
  2743  2181  2224   un
  2744  2182  2183   un
  2745  2182  2186   un
  2746  2184  2185   un
  2747  2184  2206   un
  2748  2186  2187   un
  2749  2186  2230   un
  2750  2188  2192   un
  2751  2189  2192   un
  2752  2189  2222   un
  2753  2190  2192   un
  2754  2190  2298   un
  2755  2191  2192   un
  2756  2193  2194   un
  2757  2193  2208   un
  2758  2196  2197   un
  2759  2196  2210   un
  2760  2196  2274   un
  2761  2198  2199   un
  2762  2198  2210   un
  2763  2198  2266   un
  2764  2199  2200   un
  2765  2199  2204   un
  2766  2201  2202   un
  2767  2201  2209   un
  2768  2202  2203   un
  2769  2202  2206   un
  2770  2204  2205   un
  2771  2204  2271   un
  2772  2206  2207   un
  2773  2208  2211   un
  2774  2209  2211   un
  2775  2210  2211   un
  2776  2212  2213   un
  2777  2212  2234   un
  2778  2212  2304   un
  2779  2214  2215   un
  2780  2214  2234   un
  2781  2214  2302   un
  2782  2215  2216   un
  2783  2215  2217   un
  2784  2217  2218   un
  2785  2217  2219   un
  2786  2219  2220   un
  2787  2219  2303   un
  2788  2222  2223   un
  2789  2222  2236   un
  2790  2224  2225   un
  2791  2224  2236   un
  2792  2225  2226   un
  2793  2225  2230   un
  2794  2227  2228   un
  2795  2227  2235   un
  2796  2227  2243   un
  2797  2228  2229   un
  2798  2228  2232   un
  2799  2230  2231   un
  2800  2232  2233   un
  2801  2232  2249   un
  2802  2234  2237   un
  2803  2235  2237   un
  2804  2235  2241   un
  2805  2236  2237   un
  2806  2238  2239   un
  2807  2241  2242   un
  2808  2241  2256   un
  2809  2243  2244   un
  2810  2243  2256   un
  2811  2244  2245   un
  2812  2244  2249   un
  2813  2246  2247   un
  2814  2246  2254   un
  2815  2246  2283   un
  2816  2247  2248   un
  2817  2247  2251   un
  2818  2249  2250   un
  2819  2251  2252   un
  2820  2251  2289   un
  2821  2253  2257   un
  2822  2254  2257   un
  2823  2254  2281   un
  2824  2255  2257   un
  2825  2255  2299   un
  2826  2256  2257   un
  2827  2258  2259   un
  2828  2261  2262   un
  2829  2261  2276   un
  2830  2261  2294   un
  2831  2263  2264   un
  2832  2263  2276   un
  2833  2263  2286   un
  2834  2264  2265   un
  2835  2264  2269   un
  2836  2266  2267   un
  2837  2266  2274   un
  2838  2267  2268   un
  2839  2267  2271   un
  2840  2269  2270   un
  2841  2269  2291   un
  2842  2271  2272   un
  2843  2273  2277   un
  2844  2274  2277   un
  2845  2275  2277   un
  2846  2275  2297   un
  2847  2276  2277   un
  2848  2278  2279   un
  2849  2278  2293   un
  2850  2281  2282   un
  2851  2281  2295   un
  2852  2283  2284   un
  2853  2283  2295   un
  2854  2284  2285   un
  2855  2284  2289   un
  2856  2286  2287   un
  2857  2286  2294   un
  2858  2287  2288   un
  2859  2287  2291   un
  2860  2289  2290   un
  2861  2291  2292   un
  2862  2293  2296   un
  2863  2294  2296   un
  2864  2295  2296   un
  2865  2297  3338   un
  2866  2298  3283   un
  2867  2298  3296   un
  2868  2299  3895   un
  2869  2300  3284   un
  2870  2300  3296   un
  2871  2301  3286   un
  2872  2301  3288   un
  2873  2302  2303   un
  2874  2302  2304   un
  2875  2303  3882   un
  2876  2304  3889   un
  2877  2308  2309   un
  2878  2308  2318   un
  2879  2309  2310   un
  2880  2309  2319   un
  2881  2311  2312   un
  2882  2311  2320   un
  2883  2312  2313   un
  2884  2312  2314   un
  2885  2314  2315   un
  2886  2314  2316   un
  2887  2316  2317   un
  2888  2316  2321   un
  2889  2318  3912   un
  2890  2318  3924   un
  2891  2319  3914   un
  2892  2319  3916   un
  2893  2320  2321   un
  2894  2320  2322   un
  2895  2321  3384   un
  2896  2322  3391   un
  2897  2326  2327   un
  2898  2326  2336   un
  2899  2327  2328   un
  2900  2327  2337   un
  2901  2329  2330   un
  2902  2329  2338   un
  2903  2330  2331   un
  2904  2330  2332   un
  2905  2332  2333   un
  2906  2332  2334   un
  2907  2334  2335   un
  2908  2334  2339   un
  2909  2336  3935   un
  2910  2336  3943   un
  2911  2337  3937   un
  2912  2337  3939   un
  2913  2338  2339   un
  2914  2338  2340   un
  2915  2339  3452   un
  2916  2340  3454   un
  2917  2342  2343   un
  2918  2342  2344   un
  2919  2344  2345   un
  2920  2347  2348   un
  2921  2347  2364   un
  2922  2347  2501   un
  2923  2348  2349   un
  2924  2348  2504   un
  2925  2350  2351   un
  2926  2350  2365   un
  2927  2350  2390   un
  2928  2352  2353   un
  2929  2352  2365   un
  2930  2352  2382   un
  2931  2353  2354   un
  2932  2353  2358   un
  2933  2355  2356   un
  2934  2355  2363   un
  2935  2355  2405   un
  2936  2356  2357   un
  2937  2356  2360   un
  2938  2358  2359   un
  2939  2358  2387   un
  2940  2360  2361   un
  2941  2360  2411   un
  2942  2362  2366   un
  2943  2363  2366   un
  2944  2363  2403   un
  2945  2364  2366   un
  2946  2364  2498   un
  2947  2365  2366   un
  2948  2367  2368   un
  2949  2367  2389   un
  2950  2367  2512   un
  2951  2369  2370   un
  2952  2369  2389   un
  2953  2369  2506   un
  2954  2370  2371   un
  2955  2370  2372   un
  2956  2372  2373   un
  2957  2372  2374   un
  2958  2374  2375   un
  2959  2374  2509   un
  2960  2377  2378   un
  2961  2377  2391   un
  2962  2377  2467   un
  2963  2379  2380   un
  2964  2379  2391   un
  2965  2379  2459   un
  2966  2380  2381   un
  2967  2380  2385   un
  2968  2382  2383   un
  2969  2382  2390   un
  2970  2383  2384   un
  2971  2383  2387   un
  2972  2385  2386   un
  2973  2385  2464   un
  2974  2387  2388   un
  2975  2389  2392   un
  2976  2390  2392   un
  2977  2391  2392   un
  2978  2393  2394   un
  2979  2393  2415   un
  2980  2393  2513   un
  2981  2395  2396   un
  2982  2395  2415   un
  2983  2395  2507   un
  2984  2396  2397   un
  2985  2396  2398   un
  2986  2398  2399   un
  2987  2398  2400   un
  2988  2400  2401   un
  2989  2400  2510   un
  2990  2403  2404   un
  2991  2403  2417   un
  2992  2405  2406   un
  2993  2405  2417   un
  2994  2406  2407   un
  2995  2406  2411   un
  2996  2408  2409   un
  2997  2408  2416   un
  2998  2408  2430   un
  2999  2409  2410   un
  3000  2409  2413   un
  3001  2411  2412   un
  3002  2413  2414   un
  3003  2413  2436   un
  3004  2415  2418   un
  3005  2416  2418   un
  3006  2416  2428   un
  3007  2417  2418   un
  3008  2420  2421   un
  3009  2420  2422   un
  3010  2422  2423   un
  3011  2425  2426   un
  3012  2425  2442   un
  3013  2425  2502   un
  3014  2426  2427   un
  3015  2426  2505   un
  3016  2428  2429   un
  3017  2428  2443   un
  3018  2430  2431   un
  3019  2430  2443   un
  3020  2431  2432   un
  3021  2431  2436   un
  3022  2433  2434   un
  3023  2433  2441   un
  3024  2433  2483   un
  3025  2434  2435   un
  3026  2434  2438   un
  3027  2436  2437   un
  3028  2438  2439   un
  3029  2438  2489   un
  3030  2440  2444   un
  3031  2441  2444   un
  3032  2441  2481   un
  3033  2442  2444   un
  3034  2442  2499   un
  3035  2443  2444   un
  3036  2446  2447   un
  3037  2446  2448   un
  3038  2448  2449   un
  3039  2451  2452   un
  3040  2451  2468   un
  3041  2451  2500   un
  3042  2452  2453   un
  3043  2452  2503   un
  3044  2454  2455   un
  3045  2454  2469   un
  3046  2454  2494   un
  3047  2456  2457   un
  3048  2456  2469   un
  3049  2456  2486   un
  3050  2457  2458   un
  3051  2457  2462   un
  3052  2459  2460   un
  3053  2459  2467   un
  3054  2460  2461   un
  3055  2460  2464   un
  3056  2462  2463   un
  3057  2462  2491   un
  3058  2464  2465   un
  3059  2466  2470   un
  3060  2467  2470   un
  3061  2468  2470   un
  3062  2468  2497   un
  3063  2469  2470   un
  3064  2471  2472   un
  3065  2471  2493   un
  3066  2471  2514   un
  3067  2473  2474   un
  3068  2473  2493   un
  3069  2473  2508   un
  3070  2474  2475   un
  3071  2474  2476   un
  3072  2476  2477   un
  3073  2476  2478   un
  3074  2478  2479   un
  3075  2478  2511   un
  3076  2481  2482   un
  3077  2481  2495   un
  3078  2483  2484   un
  3079  2483  2495   un
  3080  2484  2485   un
  3081  2484  2489   un
  3082  2486  2487   un
  3083  2486  2494   un
  3084  2487  2488   un
  3085  2487  2491   un
  3086  2489  2490   un
  3087  2491  2492   un
  3088  2493  2496   un
  3089  2494  2496   un
  3090  2495  2496   un
  3091  2497  3556   un
  3092  2497  3575   un
  3093  2498  3392   un
  3094  2498  3411   un
  3095  2499  4018   un
  3096  2499  4037   un
  3097  2500  3557   un
  3098  2500  3575   un
  3099  2501  3393   un
  3100  2501  3411   un
  3101  2502  4019   un
  3102  2502  4037   un
  3103  2503  3559   un
  3104  2503  3561   un
  3105  2504  3395   un
  3106  2504  3397   un
  3107  2505  4021   un
  3108  2505  4023   un
  3109  2506  2509   un
  3110  2506  2512   un
  3111  2507  2510   un
  3112  2507  2513   un
  3113  2508  2511   un
  3114  2508  2514   un
  3115  2509  3435   un
  3116  2510  4001   un
  3117  2511  3608   un
  3118  2512  3451   un
  3119  2513  4017   un
  3120  2514  3624   un
  3121  2516  2517   un
  3122  2516  2518   un
  3123  2518  2519   un
  3124  2521  2522   un
  3125  2521  2538   un
  3126  2521  2675   un
  3127  2522  2523   un
  3128  2522  2678   un
  3129  2524  2525   un
  3130  2524  2539   un
  3131  2524  2564   un
  3132  2526  2527   un
  3133  2526  2539   un
  3134  2526  2556   un
  3135  2527  2528   un
  3136  2527  2532   un
  3137  2529  2530   un
  3138  2529  2537   un
  3139  2529  2579   un
  3140  2530  2531   un
  3141  2530  2534   un
  3142  2532  2533   un
  3143  2532  2561   un
  3144  2534  2535   un
  3145  2534  2585   un
  3146  2536  2540   un
  3147  2537  2540   un
  3148  2537  2577   un
  3149  2538  2540   un
  3150  2538  2672   un
  3151  2539  2540   un
  3152  2541  2542   un
  3153  2541  2563   un
  3154  2541  2686   un
  3155  2543  2544   un
  3156  2543  2563   un
  3157  2543  2680   un
  3158  2544  2545   un
  3159  2544  2546   un
  3160  2546  2547   un
  3161  2546  2548   un
  3162  2548  2549   un
  3163  2548  2683   un
  3164  2551  2552   un
  3165  2551  2565   un
  3166  2551  2641   un
  3167  2553  2554   un
  3168  2553  2565   un
  3169  2553  2633   un
  3170  2554  2555   un
  3171  2554  2559   un
  3172  2556  2557   un
  3173  2556  2564   un
  3174  2557  2558   un
  3175  2557  2561   un
  3176  2559  2560   un
  3177  2559  2638   un
  3178  2561  2562   un
  3179  2563  2566   un
  3180  2564  2566   un
  3181  2565  2566   un
  3182  2567  2568   un
  3183  2567  2589   un
  3184  2567  2687   un
  3185  2569  2570   un
  3186  2569  2589   un
  3187  2569  2681   un
  3188  2570  2571   un
  3189  2570  2572   un
  3190  2572  2573   un
  3191  2572  2574   un
  3192  2574  2575   un
  3193  2574  2684   un
  3194  2577  2578   un
  3195  2577  2591   un
  3196  2579  2580   un
  3197  2579  2591   un
  3198  2580  2581   un
  3199  2580  2585   un
  3200  2582  2583   un
  3201  2582  2590   un
  3202  2582  2604   un
  3203  2583  2584   un
  3204  2583  2587   un
  3205  2585  2586   un
  3206  2587  2588   un
  3207  2587  2610   un
  3208  2589  2592   un
  3209  2590  2592   un
  3210  2590  2602   un
  3211  2591  2592   un
  3212  2594  2595   un
  3213  2594  2596   un
  3214  2596  2597   un
  3215  2599  2600   un
  3216  2599  2616   un
  3217  2599  2676   un
  3218  2600  2601   un
  3219  2600  2679   un
  3220  2602  2603   un
  3221  2602  2617   un
  3222  2604  2605   un
  3223  2604  2617   un
  3224  2605  2606   un
  3225  2605  2610   un
  3226  2607  2608   un
  3227  2607  2615   un
  3228  2607  2657   un
  3229  2608  2609   un
  3230  2608  2612   un
  3231  2610  2611   un
  3232  2612  2613   un
  3233  2612  2663   un
  3234  2614  2618   un
  3235  2615  2618   un
  3236  2615  2655   un
  3237  2616  2618   un
  3238  2616  2673   un
  3239  2617  2618   un
  3240  2620  2621   un
  3241  2620  2622   un
  3242  2622  2623   un
  3243  2625  2626   un
  3244  2625  2642   un
  3245  2625  2674   un
  3246  2626  2627   un
  3247  2626  2677   un
  3248  2628  2629   un
  3249  2628  2643   un
  3250  2628  2668   un
  3251  2630  2631   un
  3252  2630  2643   un
  3253  2630  2660   un
  3254  2631  2632   un
  3255  2631  2636   un
  3256  2633  2634   un
  3257  2633  2641   un
  3258  2634  2635   un
  3259  2634  2638   un
  3260  2636  2637   un
  3261  2636  2665   un
  3262  2638  2639   un
  3263  2640  2644   un
  3264  2641  2644   un
  3265  2642  2644   un
  3266  2642  2671   un
  3267  2643  2644   un
  3268  2645  2646   un
  3269  2645  2667   un
  3270  2645  2688   un
  3271  2647  2648   un
  3272  2647  2667   un
  3273  2647  2682   un
  3274  2648  2649   un
  3275  2648  2650   un
  3276  2650  2651   un
  3277  2650  2652   un
  3278  2652  2653   un
  3279  2652  2685   un
  3280  2655  2656   un
  3281  2655  2669   un
  3282  2657  2658   un
  3283  2657  2669   un
  3284  2658  2659   un
  3285  2658  2663   un
  3286  2660  2661   un
  3287  2660  2668   un
  3288  2661  2662   un
  3289  2661  2665   un
  3290  2663  2664   un
  3291  2665  2666   un
  3292  2667  2670   un
  3293  2668  2670   un
  3294  2669  2670   un
  3295  2671  3694   un
  3296  2671  3707   un
  3297  2672  3455   un
  3298  2672  3468   un
  3299  2673  4067   un
  3300  2673  4080   un
  3301  2674  3695   un
  3302  2674  3707   un
  3303  2675  3456   un
  3304  2675  3468   un
  3305  2676  4068   un
  3306  2676  4080   un
  3307  2677  3697   un
  3308  2677  3699   un
  3309  2678  3458   un
  3310  2678  3460   un
  3311  2679  4070   un
  3312  2679  4072   un
  3313  2680  2683   un
  3314  2680  2686   un
  3315  2681  2684   un
  3316  2681  2687   un
  3317  2682  2685   un
  3318  2682  2688   un
  3319  2683  3479   un
  3320  2684  4059   un
  3321  2685  3717   un
  3322  2686  3486   un
  3323  2687  4066   un
  3324  2688  3724   un
  3325  2690  2691   un
  3326  2690  2692   un
  3327  2692  2693   un
  3328  2695  2696   un
  3329  2695  2712   un
  3330  2695  2836   un
  3331  2696  2697   un
  3332  2696  2838   un
  3333  2698  2699   un
  3334  2698  2713   un
  3335  2698  2738   un
  3336  2700  2701   un
  3337  2700  2713   un
  3338  2700  2730   un
  3339  2701  2702   un
  3340  2701  2706   un
  3341  2703  2704   un
  3342  2703  2711   un
  3343  2703  2753   un
  3344  2704  2705   un
  3345  2704  2708   un
  3346  2706  2707   un
  3347  2706  2735   un
  3348  2708  2709   un
  3349  2708  2759   un
  3350  2710  2714   un
  3351  2711  2714   un
  3352  2711  2751   un
  3353  2712  2714   un
  3354  2712  2833   un
  3355  2713  2714   un
  3356  2715  2716   un
  3357  2715  2737   un
  3358  2715  2843   un
  3359  2717  2718   un
  3360  2717  2737   un
  3361  2717  2839   un
  3362  2718  2719   un
  3363  2718  2720   un
  3364  2720  2721   un
  3365  2720  2722   un
  3366  2722  2723   un
  3367  2722  2841   un
  3368  2725  2726   un
  3369  2725  2739   un
  3370  2725  2809   un
  3371  2727  2728   un
  3372  2727  2739   un
  3373  2727  2801   un
  3374  2728  2729   un
  3375  2728  2733   un
  3376  2730  2731   un
  3377  2730  2738   un
  3378  2731  2732   un
  3379  2731  2735   un
  3380  2733  2734   un
  3381  2733  2806   un
  3382  2735  2736   un
  3383  2737  2740   un
  3384  2738  2740   un
  3385  2739  2740   un
  3386  2741  2742   un
  3387  2741  2763   un
  3388  2741  2844   un
  3389  2743  2744   un
  3390  2743  2763   un
  3391  2743  2840   un
  3392  2744  2745   un
  3393  2744  2746   un
  3394  2746  2747   un
  3395  2746  2748   un
  3396  2748  2749   un
  3397  2748  2842   un
  3398  2751  2752   un
  3399  2751  2765   un
  3400  2753  2754   un
  3401  2753  2765   un
  3402  2754  2755   un
  3403  2754  2759   un
  3404  2756  2757   un
  3405  2756  2764   un
  3406  2756  2772   un
  3407  2757  2758   un
  3408  2757  2761   un
  3409  2759  2760   un
  3410  2761  2762   un
  3411  2761  2778   un
  3412  2763  2766   un
  3413  2764  2766   un
  3414  2764  2770   un
  3415  2765  2766   un
  3416  2767  2768   un
  3417  2770  2771   un
  3418  2770  2785   un
  3419  2772  2773   un
  3420  2772  2785   un
  3421  2773  2774   un
  3422  2773  2778   un
  3423  2775  2776   un
  3424  2775  2783   un
  3425  2775  2818   un
  3426  2776  2777   un
  3427  2776  2780   un
  3428  2778  2779   un
  3429  2780  2781   un
  3430  2780  2824   un
  3431  2782  2786   un
  3432  2783  2786   un
  3433  2783  2816   un
  3434  2784  2786   un
  3435  2784  2834   un
  3436  2785  2786   un
  3437  2788  2789   un
  3438  2788  2790   un
  3439  2790  2791   un
  3440  2793  2794   un
  3441  2793  2810   un
  3442  2793  2835   un
  3443  2794  2795   un
  3444  2794  2837   un
  3445  2796  2797   un
  3446  2796  2811   un
  3447  2796  2829   un
  3448  2798  2799   un
  3449  2798  2811   un
  3450  2798  2821   un
  3451  2799  2800   un
  3452  2799  2804   un
  3453  2801  2802   un
  3454  2801  2809   un
  3455  2802  2803   un
  3456  2802  2806   un
  3457  2804  2805   un
  3458  2804  2826   un
  3459  2806  2807   un
  3460  2808  2812   un
  3461  2809  2812   un
  3462  2810  2812   un
  3463  2810  2832   un
  3464  2811  2812   un
  3465  2813  2814   un
  3466  2813  2828   un
  3467  2816  2817   un
  3468  2816  2830   un
  3469  2818  2819   un
  3470  2818  2830   un
  3471  2819  2820   un
  3472  2819  2824   un
  3473  2821  2822   un
  3474  2821  2829   un
  3475  2822  2823   un
  3476  2822  2826   un
  3477  2824  2825   un
  3478  2826  2827   un
  3479  2828  2831   un
  3480  2829  2831   un
  3481  2830  2831   un
  3482  2832  3798   un
  3483  2832  3817   un
  3484  2833  3625   un
  3485  2833  3644   un
  3486  2834  4145   un
  3487  2835  3799   un
  3488  2835  3817   un
  3489  2836  3626   un
  3490  2836  3644   un
  3491  2837  3801   un
  3492  2837  3803   un
  3493  2838  3628   un
  3494  2838  3630   un
  3495  2839  2841   un
  3496  2839  2843   un
  3497  2840  2842   un
  3498  2840  2844   un
  3499  2841  3677   un
  3500  2842  4128   un
  3501  2843  3693   un
  3502  2844  4144   un
  3503  2846  2847   un
  3504  2846  2848   un
  3505  2848  2849   un
  3506  2851  2852   un
  3507  2851  2868   un
  3508  2851  2992   un
  3509  2852  2853   un
  3510  2852  2994   un
  3511  2854  2855   un
  3512  2854  2869   un
  3513  2854  2894   un
  3514  2856  2857   un
  3515  2856  2869   un
  3516  2856  2886   un
  3517  2857  2858   un
  3518  2857  2862   un
  3519  2859  2860   un
  3520  2859  2867   un
  3521  2859  2909   un
  3522  2860  2861   un
  3523  2860  2864   un
  3524  2862  2863   un
  3525  2862  2891   un
  3526  2864  2865   un
  3527  2864  2915   un
  3528  2866  2870   un
  3529  2867  2870   un
  3530  2867  2907   un
  3531  2868  2870   un
  3532  2868  2989   un
  3533  2869  2870   un
  3534  2871  2872   un
  3535  2871  2893   un
  3536  2871  2999   un
  3537  2873  2874   un
  3538  2873  2893   un
  3539  2873  2995   un
  3540  2874  2875   un
  3541  2874  2876   un
  3542  2876  2877   un
  3543  2876  2878   un
  3544  2878  2879   un
  3545  2878  2997   un
  3546  2881  2882   un
  3547  2881  2895   un
  3548  2881  2965   un
  3549  2883  2884   un
  3550  2883  2895   un
  3551  2883  2957   un
  3552  2884  2885   un
  3553  2884  2889   un
  3554  2886  2887   un
  3555  2886  2894   un
  3556  2887  2888   un
  3557  2887  2891   un
  3558  2889  2890   un
  3559  2889  2962   un
  3560  2891  2892   un
  3561  2893  2896   un
  3562  2894  2896   un
  3563  2895  2896   un
  3564  2897  2898   un
  3565  2897  2919   un
  3566  2897  3000   un
  3567  2899  2900   un
  3568  2899  2919   un
  3569  2899  2996   un
  3570  2900  2901   un
  3571  2900  2902   un
  3572  2902  2903   un
  3573  2902  2904   un
  3574  2904  2905   un
  3575  2904  2998   un
  3576  2907  2908   un
  3577  2907  2921   un
  3578  2909  2910   un
  3579  2909  2921   un
  3580  2910  2911   un
  3581  2910  2915   un
  3582  2912  2913   un
  3583  2912  2920   un
  3584  2912  2928   un
  3585  2913  2914   un
  3586  2913  2917   un
  3587  2915  2916   un
  3588  2917  2918   un
  3589  2917  2934   un
  3590  2919  2922   un
  3591  2920  2922   un
  3592  2920  2926   un
  3593  2921  2922   un
  3594  2923  2924   un
  3595  2926  2927   un
  3596  2926  2941   un
  3597  2928  2929   un
  3598  2928  2941   un
  3599  2929  2930   un
  3600  2929  2934   un
  3601  2931  2932   un
  3602  2931  2939   un
  3603  2931  2974   un
  3604  2932  2933   un
  3605  2932  2936   un
  3606  2934  2935   un
  3607  2936  2937   un
  3608  2936  2980   un
  3609  2938  2942   un
  3610  2939  2942   un
  3611  2939  2972   un
  3612  2940  2942   un
  3613  2940  2990   un
  3614  2941  2942   un
  3615  2944  2945   un
  3616  2944  2946   un
  3617  2946  2947   un
  3618  2949  2950   un
  3619  2949  2966   un
  3620  2949  2991   un
  3621  2950  2951   un
  3622  2950  2993   un
  3623  2952  2953   un
  3624  2952  2967   un
  3625  2952  2985   un
  3626  2954  2955   un
  3627  2954  2967   un
  3628  2954  2977   un
  3629  2955  2956   un
  3630  2955  2960   un
  3631  2957  2958   un
  3632  2957  2965   un
  3633  2958  2959   un
  3634  2958  2962   un
  3635  2960  2961   un
  3636  2960  2982   un
  3637  2962  2963   un
  3638  2964  2968   un
  3639  2965  2968   un
  3640  2966  2968   un
  3641  2966  2988   un
  3642  2967  2968   un
  3643  2969  2970   un
  3644  2969  2984   un
  3645  2972  2973   un
  3646  2972  2986   un
  3647  2974  2975   un
  3648  2974  2986   un
  3649  2975  2976   un
  3650  2975  2980   un
  3651  2977  2978   un
  3652  2977  2985   un
  3653  2978  2979   un
  3654  2978  2982   un
  3655  2980  2981   un
  3656  2982  2983   un
  3657  2984  2987   un
  3658  2985  2987   un
  3659  2986  2987   un
  3660  2988  3867   un
  3661  2988  3880   un
  3662  2989  3725   un
  3663  2989  3738   un
  3664  2990  4171   un
  3665  2991  3868   un
  3666  2991  3880   un
  3667  2992  3726   un
  3668  2992  3738   un
  3669  2993  3870   un
  3670  2993  3872   un
  3671  2994  3728   un
  3672  2994  3730   un
  3673  2995  2997   un
  3674  2995  2999   un
  3675  2996  2998   un
  3676  2996  3000   un
  3677  2997  3755   un
  3678  2998  4163   un
  3679  2999  3762   un
  3680  3000  4170   un
  3681  3001  3002   un
  3682  3001  3016   un
  3683  3002  3003   un
  3684  3002  3004   un
  3685  3004  3005   un
  3686  3004  3006   un
  3687  3006  3007   un
  3688  3006  3017   un
  3689  3011  3012   un
  3690  3011  3014   un
  3691  3012  3013   un
  3692  3012  3015   un
  3693  3014  3981   un
  3694  3014  3993   un
  3695  3015  3983   un
  3696  3015  3985   un
  3697  3016  3017   un
  3698  3016  3018   un
  3699  3017  3927   un
  3700  3018  3934   un
  3701  3019  3020   un
  3702  3019  3034   un
  3703  3020  3021   un
  3704  3020  3022   un
  3705  3022  3023   un
  3706  3022  3024   un
  3707  3024  3025   un
  3708  3024  3035   un
  3709  3029  3030   un
  3710  3029  3032   un
  3711  3030  3031   un
  3712  3030  3033   un
  3713  3032  4050   un
  3714  3032  4058   un
  3715  3033  4052   un
  3716  3033  4054   un
  3717  3034  3035   un
  3718  3034  3036   un
  3719  3035  3944   un
  3720  3036  3946   un
  3721  3037  3038   un
  3722  3037  3052   un
  3723  3038  3039   un
  3724  3038  3040   un
  3725  3040  3041   un
  3726  3040  3042   un
  3727  3042  3043   un
  3728  3042  3053   un
  3729  3047  3048   un
  3730  3047  3050   un
  3731  3048  3049   un
  3732  3048  3051   un
  3733  3050  4108   un
  3734  3050  4120   un
  3735  3051  4110   un
  3736  3051  4112   un
  3737  3052  3053   un
  3738  3052  3054   un
  3739  3053  4042   un
  3740  3054  4049   un
  3741  3055  3056   un
  3742  3055  3070   un
  3743  3056  3057   un
  3744  3056  3058   un
  3745  3058  3059   un
  3746  3058  3060   un
  3747  3060  3061   un
  3748  3060  3071   un
  3749  3065  3066   un
  3750  3065  3068   un
  3751  3066  3067   un
  3752  3066  3069   un
  3753  3068  4154   un
  3754  3068  4162   un
  3755  3069  4156   un
  3756  3069  4158   un
  3757  3070  3071   un
  3758  3070  3072   un
  3759  3071  4082   un
  3760  3072  4084   un
  3761  3074  3075   un
  3762  3074  3078   un
  3763  3074  3080   un
  3764  3075  3076   un
  3765  3076  3077   un
  3766  3076  3083   un
  3767  3080  3081   un
  3768  3080  3085   un
  3769  3081  3082   un
  3770  3081  3083   un
  3771  3083  3084   un
  3772  3085  3086   un
  3773  3087  3088   un
  3774  3087  3089   un
  3775  3089  3090   un
  3776  3092  3093   un
  3777  3099  3100   un
  3778  3099  3103   un
  3779  3099  3114   un
  3780  3100  3101   un
  3781  3101  3102   un
  3782  3101  3120   un
  3783  3103  3104   un
  3784  3103  3112   un
  3785  3106  3107   un
  3786  3106  3108   un
  3787  3108  3109   un
  3788  3112  3113   un
  3789  3112  3126   un
  3790  3114  3115   un
  3791  3114  3126   un
  3792  3115  3116   un
  3793  3115  3120   un
  3794  3117  3118   un
  3795  3117  3125   un
  3796  3117  3135   un
  3797  3118  3119   un
  3798  3118  3122   un
  3799  3120  3121   un
  3800  3122  3123   un
  3801  3122  3138   un
  3802  3124  3127   un
  3803  3125  3127   un
  3804  3125  3133   un
  3805  3126  3127   un
  3806  3128  3129   un
  3807  3128  3130   un
  3808  3130  3131   un
  3809  3133  3134   un
  3810  3133  3141   un
  3811  3135  3136   un
  3812  3135  3141   un
  3813  3136  3138   un
  3814  3138  3139   un
  3815  3146  3147   un
  3816  3146  3148   un
  3817  3148  3149   un
  3818  3151  3152   un
  3819  3153  3154   un
  3820  3153  3159   un
  3821  3153  3160   un
  3822  3154  3155   un
  3823  3154  3156   un
  3824  3156  3157   un
  3825  3156  3162   un
  3826  3160  3161   un
  3827  3160  3164   un
  3828  3161  3162   un
  3829  3162  3163   un
  3830  3169  3170   un
  3831  3169  3171   un
  3832  3171  3172   un
  3833  3174  3175   un
  3834  3176  3177   un
  3835  3176  3182   un
  3836  3176  3184   un
  3837  3177  3178   un
  3838  3177  3179   un
  3839  3179  3180   un
  3840  3179  3187   un
  3841  3184  3185   un
  3842  3184  3189   un
  3843  3185  3186   un
  3844  3185  3187   un
  3845  3187  3188   un
  3846  3189  3190   un
  3847  3191  3192   un
  3848  3191  3193   un
  3849  3193  3194   un
  3850  3196  3197   un
  3851  3203  3204   un
  3852  3203  3207   un
  3853  3203  3218   un
  3854  3204  3205   un
  3855  3205  3206   un
  3856  3205  3224   un
  3857  3207  3208   un
  3858  3207  3216   un
  3859  3210  3211   un
  3860  3210  3212   un
  3861  3212  3213   un
  3862  3216  3217   un
  3863  3216  3230   un
  3864  3218  3219   un
  3865  3218  3230   un
  3866  3219  3220   un
  3867  3219  3224   un
  3868  3221  3222   un
  3869  3221  3229   un
  3870  3221  3241   un
  3871  3222  3223   un
  3872  3222  3226   un
  3873  3224  3225   un
  3874  3226  3227   un
  3875  3226  3247   un
  3876  3228  3231   un
  3877  3229  3231   un
  3878  3229  3239   un
  3879  3230  3231   un
  3880  3233  3234   un
  3881  3233  3235   un
  3882  3235  3236   un
  3883  3239  3240   un
  3884  3239  3253   un
  3885  3241  3242   un
  3886  3241  3253   un
  3887  3242  3243   un
  3888  3242  3247   un
  3889  3244  3245   un
  3890  3244  3252   un
  3891  3244  3262   un
  3892  3245  3246   un
  3893  3245  3249   un
  3894  3247  3248   un
  3895  3249  3250   un
  3896  3249  3265   un
  3897  3251  3254   un
  3898  3252  3254   un
  3899  3252  3260   un
  3900  3253  3254   un
  3901  3255  3256   un
  3902  3255  3257   un
  3903  3257  3258   un
  3904  3260  3261   un
  3905  3260  3268   un
  3906  3262  3263   un
  3907  3262  3268   un
  3908  3263  3265   un
  3909  3265  3266   un
  3910  3270  3271   un
  3911  3270  3274   un
  3912  3270  3276   un
  3913  3271  3272   un
  3914  3272  3273   un
  3915  3272  3279   un
  3916  3276  3277   un
  3917  3276  3281   un
  3918  3277  3278   un
  3919  3277  3279   un
  3920  3279  3280   un
  3921  3281  3282   un
  3922  3284  3285   un
  3923  3284  3286   un
  3924  3286  3287   un
  3925  3289  3290   un
  3926  3291  3292   un
  3927  3291  3297   un
  3928  3291  3298   un
  3929  3292  3293   un
  3930  3292  3294   un
  3931  3294  3295   un
  3932  3294  3300   un
  3933  3298  3299   un
  3934  3298  3302   un
  3935  3299  3300   un
  3936  3300  3301   un
  3937  3306  3307   un
  3938  3306  3308   un
  3939  3308  3309   un
  3940  3311  3312   un
  3941  3318  3319   un
  3942  3318  3322   un
  3943  3318  3331   un
  3944  3319  3320   un
  3945  3320  3321   un
  3946  3320  3334   un
  3947  3322  3323   un
  3948  3322  3329   un
  3949  3324  3325   un
  3950  3324  3326   un
  3951  3326  3327   un
  3952  3329  3330   un
  3953  3329  3337   un
  3954  3331  3332   un
  3955  3331  3337   un
  3956  3332  3334   un
  3957  3334  3335   un
  3958  3339  3340   un
  3959  3339  3343   un
  3960  3339  3344   un
  3961  3340  3341   un
  3962  3341  3342   un
  3963  3341  3346   un
  3964  3344  3345   un
  3965  3344  3348   un
  3966  3345  3346   un
  3967  3346  3347   un
  3968  3350  3351   un
  3969  3350  3354   un
  3970  3350  3356   un
  3971  3351  3352   un
  3972  3352  3353   un
  3973  3352  3359   un
  3974  3356  3357   un
  3975  3356  3361   un
  3976  3357  3358   un
  3977  3357  3359   un
  3978  3359  3360   un
  3979  3361  3362   un
  3980  3363  3364   un
  3981  3363  3367   un
  3982  3363  3376   un
  3983  3364  3365   un
  3984  3365  3366   un
  3985  3365  3379   un
  3986  3369  3370   un
  3987  3369  3371   un
  3988  3371  3372   un
  3989  3374  3375   un
  3990  3376  3377   un
  3991  3376  3382   un
  3992  3377  3378   un
  3993  3377  3379   un
  3994  3379  3380   un
  3995  3386  3387   un
  3996  3386  3390   un
  3997  3386  3401   un
  3998  3387  3388   un
  3999  3388  3389   un
  4000  3388  3407   un
  4001  3390  3391   un
  4002  3390  3399   un
  4003  3393  3394   un
  4004  3393  3395   un
  4005  3395  3396   un
  4006  3399  3400   un
  4007  3399  3413   un
  4008  3401  3402   un
  4009  3401  3413   un
  4010  3402  3403   un
  4011  3402  3407   un
  4012  3404  3405   un
  4013  3404  3412   un
  4014  3404  3438   un
  4015  3405  3406   un
  4016  3405  3409   un
  4017  3407  3408   un
  4018  3409  3410   un
  4019  3409  3444   un
  4020  3411  3414   un
  4021  3412  3414   un
  4022  3412  3436   un
  4023  3413  3414   un
  4024  3415  3416   un
  4025  3415  3417   un
  4026  3417  3418   un
  4027  3420  3421   un
  4028  3420  3428   un
  4029  3420  3449   un
  4030  3422  3423   un
  4031  3422  3428   un
  4032  3422  3441   un
  4033  3423  3425   un
  4034  3425  3426   un
  4035  3425  3446   un
  4036  3430  3431   un
  4037  3430  3432   un
  4038  3432  3433   un
  4039  3436  3437   un
  4040  3436  3450   un
  4041  3438  3439   un
  4042  3438  3450   un
  4043  3439  3440   un
  4044  3439  3444   un
  4045  3441  3442   un
  4046  3441  3449   un
  4047  3442  3443   un
  4048  3442  3446   un
  4049  3444  3445   un
  4050  3446  3447   un
  4051  3448  3451   un
  4052  3449  3451   un
  4053  3450  3451   un
  4054  3456  3457   un
  4055  3456  3458   un
  4056  3458  3459   un
  4057  3461  3462   un
  4058  3463  3464   un
  4059  3463  3469   un
  4060  3463  3480   un
  4061  3464  3465   un
  4062  3464  3466   un
  4063  3466  3467   un
  4064  3466  3483   un
  4065  3470  3471   un
  4066  3470  3472   un
  4067  3472  3473   un
  4068  3475  3476   un
  4069  3480  3481   un
  4070  3480  3485   un
  4071  3481  3482   un
  4072  3481  3483   un
  4073  3483  3484   un
  4074  3485  3486   un
  4075  3488  3489   un
  4076  3488  3493   un
  4077  3488  3503   un
  4078  3489  3490   un
  4079  3489  3491   un
  4080  3491  3492   un
  4081  3491  3506   un
  4082  3493  3494   un
  4083  3496  3497   un
  4084  3496  3498   un
  4085  3498  3499   un
  4086  3501  3502   un
  4087  3503  3504   un
  4088  3503  3509   un
  4089  3504  3505   un
  4090  3504  3506   un
  4091  3506  3507   un
  4092  3511  3512   un
  4093  3511  3513   un
  4094  3513  3514   un
  4095  3516  3517   un
  4096  3518  3519   un
  4097  3518  3524   un
  4098  3518  3526   un
  4099  3519  3520   un
  4100  3519  3521   un
  4101  3521  3522   un
  4102  3521  3529   un
  4103  3526  3527   un
  4104  3526  3531   un
  4105  3527  3528   un
  4106  3527  3529   un
  4107  3529  3530   un
  4108  3531  3532   un
  4109  3534  3535   un
  4110  3534  3539   un
  4111  3534  3549   un
  4112  3535  3536   un
  4113  3535  3537   un
  4114  3537  3538   un
  4115  3537  3552   un
  4116  3539  3540   un
  4117  3542  3543   un
  4118  3542  3544   un
  4119  3544  3545   un
  4120  3547  3548   un
  4121  3549  3550   un
  4122  3549  3555   un
  4123  3550  3551   un
  4124  3550  3552   un
  4125  3552  3553   un
  4126  3557  3558   un
  4127  3557  3559   un
  4128  3559  3560   un
  4129  3563  3564   un
  4130  3563  3577   un
  4131  3563  3599   un
  4132  3565  3566   un
  4133  3565  3577   un
  4134  3565  3591   un
  4135  3566  3567   un
  4136  3566  3571   un
  4137  3568  3569   un
  4138  3568  3576   un
  4139  3568  3611   un
  4140  3569  3570   un
  4141  3569  3573   un
  4142  3571  3572   un
  4143  3571  3596   un
  4144  3573  3574   un
  4145  3573  3617   un
  4146  3575  3578   un
  4147  3576  3578   un
  4148  3576  3609   un
  4149  3577  3578   un
  4150  3580  3581   un
  4151  3580  3582   un
  4152  3582  3583   un
  4153  3586  3587   un
  4154  3586  3600   un
  4155  3586  3668   un
  4156  3588  3589   un
  4157  3588  3600   un
  4158  3588  3660   un
  4159  3589  3590   un
  4160  3589  3594   un
  4161  3591  3592   un
  4162  3591  3599   un
  4163  3592  3593   un
  4164  3592  3596   un
  4165  3594  3595   un
  4166  3594  3665   un
  4167  3596  3597   un
  4168  3598  3601   un
  4169  3599  3601   un
  4170  3600  3601   un
  4171  3603  3604   un
  4172  3603  3605   un
  4173  3605  3606   un
  4174  3609  3610   un
  4175  3609  3623   un
  4176  3611  3612   un
  4177  3611  3623   un
  4178  3612  3613   un
  4179  3612  3617   un
  4180  3614  3615   un
  4181  3614  3622   un
  4182  3614  3634   un
  4183  3615  3616   un
  4184  3615  3619   un
  4185  3617  3618   un
  4186  3619  3620   un
  4187  3619  3640   un
  4188  3621  3624   un
  4189  3622  3624   un
  4190  3622  3632   un
  4191  3623  3624   un
  4192  3626  3627   un
  4193  3626  3628   un
  4194  3628  3629   un
  4195  3632  3633   un
  4196  3632  3646   un
  4197  3634  3635   un
  4198  3634  3646   un
  4199  3635  3636   un
  4200  3635  3640   un
  4201  3637  3638   un
  4202  3637  3645   un
  4203  3637  3680   un
  4204  3638  3639   un
  4205  3638  3642   un
  4206  3640  3641   un
  4207  3642  3643   un
  4208  3642  3686   un
  4209  3644  3647   un
  4210  3645  3647   un
  4211  3645  3678   un
  4212  3646  3647   un
  4213  3649  3650   un
  4214  3649  3651   un
  4215  3651  3652   un
  4216  3655  3656   un
  4217  3655  3669   un
  4218  3655  3691   un
  4219  3657  3658   un
  4220  3657  3669   un
  4221  3657  3683   un
  4222  3658  3659   un
  4223  3658  3663   un
  4224  3660  3661   un
  4225  3660  3668   un
  4226  3661  3662   un
  4227  3661  3665   un
  4228  3663  3664   un
  4229  3663  3688   un
  4230  3665  3666   un
  4231  3667  3670   un
  4232  3668  3670   un
  4233  3669  3670   un
  4234  3672  3673   un
  4235  3672  3674   un
  4236  3674  3675   un
  4237  3678  3679   un
  4238  3678  3692   un
  4239  3680  3681   un
  4240  3680  3692   un
  4241  3681  3682   un
  4242  3681  3686   un
  4243  3683  3684   un
  4244  3683  3691   un
  4245  3684  3685   un
  4246  3684  3688   un
  4247  3686  3687   un
  4248  3688  3689   un
  4249  3690  3693   un
  4250  3691  3693   un
  4251  3692  3693   un
  4252  3695  3696   un
  4253  3695  3697   un
  4254  3697  3698   un
  4255  3700  3701   un
  4256  3702  3703   un
  4257  3702  3708   un
  4258  3702  3718   un
  4259  3703  3704   un
  4260  3703  3705   un
  4261  3705  3706   un
  4262  3705  3721   un
  4263  3710  3711   un
  4264  3710  3715   un
  4265  3710  3748   un
  4266  3711  3712   un
  4267  3711  3713   un
  4268  3713  3714   un
  4269  3713  3751   un
  4270  3715  3716   un
  4271  3718  3719   un
  4272  3718  3723   un
  4273  3719  3720   un
  4274  3719  3721   un
  4275  3721  3722   un
  4276  3723  3724   un
  4277  3726  3727   un
  4278  3726  3728   un
  4279  3728  3729   un
  4280  3731  3732   un
  4281  3733  3734   un
  4282  3733  3739   un
  4283  3733  3756   un
  4284  3734  3735   un
  4285  3734  3736   un
  4286  3736  3737   un
  4287  3736  3759   un
  4288  3741  3742   un
  4289  3741  3743   un
  4290  3743  3744   un
  4291  3746  3747   un
  4292  3748  3749   un
  4293  3748  3754   un
  4294  3749  3750   un
  4295  3749  3751   un
  4296  3751  3752   un
  4297  3756  3757   un
  4298  3756  3761   un
  4299  3757  3758   un
  4300  3757  3759   un
  4301  3759  3760   un
  4302  3761  3762   un
  4303  3764  3765   un
  4304  3764  3769   un
  4305  3764  3779   un
  4306  3765  3766   un
  4307  3765  3767   un
  4308  3767  3768   un
  4309  3767  3782   un
  4310  3769  3770   un
  4311  3772  3773   un
  4312  3772  3774   un
  4313  3774  3775   un
  4314  3777  3778   un
  4315  3779  3780   un
  4316  3779  3785   un
  4317  3780  3781   un
  4318  3780  3782   un
  4319  3782  3783   un
  4320  3786  3787   un
  4321  3786  3788   un
  4322  3788  3789   un
  4323  3791  3792   un
  4324  3799  3800   un
  4325  3799  3801   un
  4326  3801  3802   un
  4327  3805  3806   un
  4328  3805  3819   un
  4329  3805  3841   un
  4330  3807  3808   un
  4331  3807  3819   un
  4332  3807  3833   un
  4333  3808  3809   un
  4334  3808  3813   un
  4335  3810  3811   un
  4336  3810  3818   un
  4337  3810  3851   un
  4338  3811  3812   un
  4339  3811  3815   un
  4340  3813  3814   un
  4341  3813  3838   un
  4342  3815  3816   un
  4343  3815  3854   un
  4344  3817  3820   un
  4345  3818  3820   un
  4346  3818  3849   un
  4347  3819  3820   un
  4348  3822  3823   un
  4349  3822  3824   un
  4350  3824  3825   un
  4351  3828  3829   un
  4352  3828  3842   un
  4353  3828  3865   un
  4354  3830  3831   un
  4355  3830  3842   un
  4356  3830  3861   un
  4357  3831  3832   un
  4358  3831  3836   un
  4359  3833  3834   un
  4360  3833  3841   un
  4361  3834  3835   un
  4362  3834  3838   un
  4363  3836  3837   un
  4364  3836  3863   un
  4365  3838  3839   un
  4366  3840  3843   un
  4367  3841  3843   un
  4368  3842  3843   un
  4369  3844  3845   un
  4370  3844  3846   un
  4371  3846  3847   un
  4372  3849  3850   un
  4373  3849  3857   un
  4374  3851  3852   un
  4375  3851  3857   un
  4376  3852  3854   un
  4377  3854  3855   un
  4378  3861  3862   un
  4379  3861  3865   un
  4380  3862  3863   un
  4381  3863  3864   un
  4382  3865  3866   un
  4383  3868  3869   un
  4384  3868  3870   un
  4385  3870  3871   un
  4386  3873  3874   un
  4387  3875  3876   un
  4388  3875  3881   un
  4389  3875  3890   un
  4390  3876  3877   un
  4391  3876  3878   un
  4392  3878  3879   un
  4393  3878  3892   un
  4394  3883  3884   un
  4395  3883  3888   un
  4396  3883  3896   un
  4397  3884  3885   un
  4398  3884  3886   un
  4399  3886  3887   un
  4400  3886  3898   un
  4401  3888  3889   un
  4402  3890  3891   un
  4403  3890  3894   un
  4404  3891  3892   un
  4405  3892  3893   un
  4406  3896  3897   un
  4407  3896  3900   un
  4408  3897  3898   un
  4409  3898  3899   un
  4410  3901  3902   un
  4411  3901  3905   un
  4412  3901  3907   un
  4413  3902  3903   un
  4414  3903  3904   un
  4415  3903  3909   un
  4416  3907  3908   un
  4417  3907  3911   un
  4418  3908  3909   un
  4419  3909  3910   un
  4420  3912  3913   un
  4421  3912  3914   un
  4422  3914  3915   un
  4423  3917  3918   un
  4424  3917  3925   un
  4425  3917  3933   un
  4426  3919  3920   un
  4427  3919  3925   un
  4428  3919  3929   un
  4429  3920  3922   un
  4430  3922  3923   un
  4431  3922  3931   un
  4432  3929  3930   un
  4433  3929  3933   un
  4434  3930  3931   un
  4435  3931  3932   un
  4436  3933  3934   un
  4437  3935  3936   un
  4438  3935  3937   un
  4439  3937  3938   un
  4440  3940  3941   un
  4441  3947  3948   un
  4442  3947  3951   un
  4443  3947  3960   un
  4444  3948  3949   un
  4445  3949  3950   un
  4446  3949  3963   un
  4447  3953  3954   un
  4448  3953  3955   un
  4449  3955  3956   un
  4450  3958  3959   un
  4451  3960  3961   un
  4452  3960  3966   un
  4453  3961  3962   un
  4454  3961  3963   un
  4455  3963  3964   un
  4456  3968  3969   un
  4457  3968  3973   un
  4458  3968  3976   un
  4459  3969  3970   un
  4460  3969  3971   un
  4461  3971  3972   un
  4462  3971  3978   un
  4463  3973  3974   un
  4464  3976  3977   un
  4465  3976  3980   un
  4466  3977  3978   un
  4467  3978  3979   un
  4468  3981  3982   un
  4469  3981  3983   un
  4470  3983  3984   un
  4471  3986  3987   un
  4472  3986  3994   un
  4473  3986  4015   un
  4474  3988  3989   un
  4475  3988  3994   un
  4476  3988  4007   un
  4477  3989  3991   un
  4478  3991  3992   un
  4479  3991  4012   un
  4480  3996  3997   un
  4481  3996  3998   un
  4482  3998  3999   un
  4483  4002  4003   un
  4484  4002  4016   un
  4485  4002  4038   un
  4486  4004  4005   un
  4487  4004  4016   un
  4488  4004  4030   un
  4489  4005  4006   un
  4490  4005  4010   un
  4491  4007  4008   un
  4492  4007  4015   un
  4493  4008  4009   un
  4494  4008  4012   un
  4495  4010  4011   un
  4496  4010  4035   un
  4497  4012  4013   un
  4498  4014  4017   un
  4499  4015  4017   un
  4500  4016  4017   un
  4501  4019  4020   un
  4502  4019  4021   un
  4503  4021  4022   un
  4504  4025  4026   un
  4505  4025  4039   un
  4506  4025  4048   un
  4507  4027  4028   un
  4508  4027  4039   un
  4509  4027  4044   un
  4510  4028  4029   un
  4511  4028  4033   un
  4512  4030  4031   un
  4513  4030  4038   un
  4514  4031  4032   un
  4515  4031  4035   un
  4516  4033  4034   un
  4517  4033  4046   un
  4518  4035  4036   un
  4519  4037  4040   un
  4520  4038  4040   un
  4521  4039  4040   un
  4522  4044  4045   un
  4523  4044  4048   un
  4524  4045  4046   un
  4525  4046  4047   un
  4526  4048  4049   un
  4527  4050  4051   un
  4528  4050  4052   un
  4529  4052  4053   un
  4530  4055  4056   un
  4531  4060  4061   un
  4532  4060  4065   un
  4533  4060  4075   un
  4534  4061  4062   un
  4535  4061  4063   un
  4536  4063  4064   un
  4537  4063  4078   un
  4538  4065  4066   un
  4539  4068  4069   un
  4540  4068  4070   un
  4541  4070  4071   un
  4542  4073  4074   un
  4543  4075  4076   un
  4544  4075  4081   un
  4545  4076  4077   un
  4546  4076  4078   un
  4547  4078  4079   un
  4548  4085  4086   un
  4549  4085  4089   un
  4550  4085  4098   un
  4551  4086  4087   un
  4552  4087  4088   un
  4553  4087  4101   un
  4554  4091  4092   un
  4555  4091  4093   un
  4556  4093  4094   un
  4557  4096  4097   un
  4558  4098  4099   un
  4559  4098  4104   un
  4560  4099  4100   un
  4561  4099  4101   un
  4562  4101  4102   un
  4563  4108  4109   un
  4564  4108  4110   un
  4565  4110  4111   un
  4566  4113  4114   un
  4567  4113  4121   un
  4568  4113  4142   un
  4569  4115  4116   un
  4570  4115  4121   un
  4571  4115  4134   un
  4572  4116  4118   un
  4573  4118  4119   un
  4574  4118  4139   un
  4575  4123  4124   un
  4576  4123  4125   un
  4577  4125  4126   un
  4578  4129  4130   un
  4579  4129  4143   un
  4580  4129  4152   un
  4581  4131  4132   un
  4582  4131  4143   un
  4583  4131  4148   un
  4584  4132  4133   un
  4585  4132  4137   un
  4586  4134  4135   un
  4587  4134  4142   un
  4588  4135  4136   un
  4589  4135  4139   un
  4590  4137  4138   un
  4591  4137  4150   un
  4592  4139  4140   un
  4593  4141  4144   un
  4594  4142  4144   un
  4595  4143  4144   un
  4596  4148  4149   un
  4597  4148  4152   un
  4598  4149  4150   un
  4599  4150  4151   un
  4600  4152  4153   un
  4601  4154  4155   un
  4602  4154  4156   un
  4603  4156  4157   un
  4604  4159  4160   un
  4605  4164  4165   un
  4606  4164  4169   un
  4607  4164  4172   un
  4608  4165  4166   un
  4609  4165  4167   un
  4610  4167  4168   un
  4611  4167  4174   un
  4612  4169  4170   un
  4613  4172  4173   un
  4614  4172  4176   un
  4615  4173  4174   un
  4616  4174  4175   un
@<TRIPOS>CRYSIN
   22.9890   22.9890   15.7630    1.5708    1.5708    2.0944
