@<TRIPOS>MOLECULE
generated by VMD
   31    0    1    0    0
SMALL
NO_CHARGES
****
Energy = 0

@<TRIPOS>ATOM
      1  N1        25.7480   25.2490   25.0000   N1    1  TMP        0.000000
      2  C2        25.0780   25.0690   26.3200   C2    1  TMP        0.000000
      3  C3        23.6280   25.5390   26.2400   C3    1  TMP        0.000000
      4  C4        22.8880   25.0490   25.0000   C4    1  TMP        0.000000
      5  C5        23.6280   25.5390   23.7600   C5    1  TMP        0.000000
      6  C6        25.0780   25.0690   23.6800   C6    1  TMP        0.000000
      7  C7        25.1680   23.5890   26.7300   C7    1  TMP        0.000000
      8  C8        25.8380   25.9190   27.3400   C8    1  TMP        0.000000
      9  C9        25.8380   25.9190   22.6600   C9    1  TMP        0.000000
     10  C10       25.1680   23.5890   23.2700  C10    1  TMP        0.000000
     11  O1        27.0180   25.1090   25.0000   O1    1  TMP        0.000000
     12  H1        22.8180   23.9490   25.0000   H1    1  TMP        0.000000
     13  H2        21.8580   25.4190   25.0000   H2    1  TMP        0.000000
     14  H3        23.1180   25.2190   27.1500   H3    1  TMP        0.000000
     15  H4        23.6080   26.6390   26.2400   H4    1  TMP        0.000000
     16  H5        23.1180   25.2190   22.8500   H5    1  TMP        0.000000
     17  H6        23.6080   26.6390   23.7600   H6    1  TMP        0.000000
     18  H7        25.8580   26.9690   22.9700   H7    1  TMP        0.000000
     19  H8        26.8680   25.5690   22.5600   H8    1  TMP        0.000000
     20  H9        25.3380   25.8490   21.6900   H9    1  TMP        0.000000
     21  H10       26.2080   23.2490   23.3400  H10    1  TMP        0.000000
     22  H11       24.5480   22.9390   23.8900  H11    1  TMP        0.000000
     23  H12       24.8380   23.4790   22.2300  H12    1  TMP        0.000000
     24  H13       24.5480   22.9390   26.1100  H13    1  TMP        0.000000
     25  H14       26.2080   23.2490   26.6600  H14    1  TMP        0.000000
     26  H15       24.8380   23.4790   27.7700  H15    1  TMP        0.000000
     27  H16       26.8680   25.5690   27.4400  H16    1  TMP        0.000000
     28  H17       25.8580   26.9690   27.0300  H17    1  TMP        0.000000
     29  H18       25.3380   25.8490   28.3100  H18    1  TMP        0.000000
     30  LP1       27.2380   25.0790   25.2700  LP1    1  TMP        0.000000
     31  LP2       27.2380   25.0790   24.7300  LP2    1  TMP        0.000000

@<TRIPOS>SUBSTRUCTURE
1 ****        1 TEMP                        0 ****  **** 0 ROOT
